
 Fire Dynamics Simulator

 Compilation Date : Sat, 11 Apr 2015
 Current Date     : October  9, 2015  10:26:09
 Version          : FDS 6.2.0
 SVN Revision No. : 22343

 MPI Enabled; Number of MPI Processes:     1
 OpenMP Enabled; Number of OpenMP Threads:   4

 Job TITLE        : Test BURN_AWAY feature
 Job ID string    : box_burn_away1


 Grid Dimensions, Mesh     1

   Cells in the X Direction            10
   Cells in the Y Direction            10
   Cells in the Z Direction            10


 Physical Dimensions, Mesh     1

   Length (m)                       1.000
   Width  (m)                       1.000
   Height (m)                       1.000
   Initial Time Step (s)            0.010


 Miscellaneous Parameters

   Simulation Start Time (s)          0.0
   Simulation End Time (s)           30.0
   LES Calculation
   Deardorff Model (C_DEARDORFF)     0.10
   Turbulent Prandtl Number          0.50
   Turbulent Schmidt Number          0.50
   Ambient Temperature (C)          20.00


 Mass Fraction Transformation Matrix to Convert Species Mixtures (Columns) to Primitive Species (Rows)

                         AIR       METHANE   PRODUCTS
   METHANE               0.000000  1.000000  0.000000
   NITROGEN              0.763018  0.000000  0.721226
   OXYGEN                0.231164  0.000000  0.000000
   CARBON DIOXIDE        0.000592  0.000000  0.150818
   CARBON MONOXIDE       0.000000  0.000000  0.000000
   WATER VAPOR           0.005226  0.000000  0.127956
   SOOT                  0.000000  0.000000  0.000000


 Primitive Species Information

   METHANE                                                     
   Gas Species
   Molecular Weight (g/mol)            16.04246
   Ambient Density (kg/m^3)            0.667
   Enthalpy of Formation (J/kg)       -4.67E+06

   NITROGEN                                                    
   Gas Species
   Molecular Weight (g/mol)            28.01340
   Ambient Density (kg/m^3)            1.165
   Enthalpy of Formation (J/kg)        0.00E+00

   OXYGEN                                                      
   Gas Species
   Molecular Weight (g/mol)            31.99880
   Ambient Density (kg/m^3)            1.330
   Enthalpy of Formation (J/kg)        0.00E+00

   CARBON DIOXIDE                                              
   Gas Species
   Molecular Weight (g/mol)            44.00950
   Ambient Density (kg/m^3)            1.830
   Enthalpy of Formation (J/kg)       -8.94E+06

   CARBON MONOXIDE                                             
   Gas Species
   Molecular Weight (g/mol)            28.01010
   Ambient Density (kg/m^3)            1.164
   Enthalpy of Formation (J/kg)       -3.95E+06

   WATER VAPOR                                                 
   Gas Species
   Molecular Weight (g/mol)            18.01528
   Ambient Density (kg/m^3)            0.749
   Enthalpy of Formation (J/kg)       -1.34E+07

   SOOT                                                        
   Gas Species
   Molecular Weight (g/mol)            10.91042
   Ambient Density (kg/m^3)            0.454
   Enthalpy of Formation (J/kg)        0.00E+00


 Tracked (Lumped) Species Information

   AIR                                                         
   Molecular Weight (g/mol)            28.76431
   Ambient Density (kg/m^3)            1.196
   Initial Mass Fraction               1.000
   Enthalpy of Formation (J/kg)     -7.54E+04

   Sub Species                    Mass Fraction     Mole Fraction
   NITROGEN                       7.630183E-01      7.834714E-01
   OXYGEN                         2.311635E-01      2.077972E-01
   CARBON DIOXIDE                 5.918904E-04      3.868556E-04
   WATER VAPOR                    5.226257E-03      8.344566E-03
 
   Viscosity (kg/m/s)   Ambient (293 K):  1.79E-05
                                  500 K:  2.61E-05
                                 1000 K:  4.12E-05
                                 1500 K:  5.36E-05
   Therm. Cond. (W/m/K) Ambient (293 K):  2.54E-02
                                  500 K:  3.80E-02
                                 1000 K:  6.62E-02
                                 1500 K:  9.20E-02
   Spec. Heat (J/kg/K)  Ambient (293 K):  1.01E+03
                                  500 K:  1.04E+03
                                 1000 K:  1.15E+03
                                 1500 K:  1.22E+03
   Diff. Coeff. (m^2/s) Ambient (293 K):  1.99E-05
                                  500 K:  4.96E-05
                                 1000 K:  1.58E-04
                                 1500 K:  3.09E-04

   METHANE                                                     
   Molecular Weight (g/mol)            16.04246
   Ambient Density (kg/m^3)            0.667
   Initial Mass Fraction               0.000
   Enthalpy of Formation (J/kg)     -4.67E+06

   Sub Species                    Mass Fraction     Mole Fraction
   METHANE                        1.000000E+00      1.000000E+00
 
   Viscosity (kg/m/s)   Ambient (293 K):  1.10E-05
                                  500 K:  1.68E-05
                                 1000 K:  2.73E-05
                                 1500 K:  3.56E-05
   Therm. Cond. (W/m/K) Ambient (293 K):  3.44E-02
                                  500 K:  6.94E-02
                                 1000 K:  1.74E-01
                                 1500 K:  2.74E-01
   Spec. Heat (J/kg/K)  Ambient (293 K):  2.20E+03
                                  500 K:  2.90E+03
                                 1000 K:  4.47E+03
                                 1500 K:  5.39E+03
   Diff. Coeff. (m^2/s) Ambient (293 K):  2.15E-05
                                  500 K:  5.44E-05
                                 1000 K:  1.75E-04
                                 1500 K:  3.43E-04

   PRODUCTS                                                    
   Molecular Weight (g/mol)            27.56694
   Ambient Density (kg/m^3)            1.146
   Initial Mass Fraction               0.000
   Enthalpy of Formation (J/kg)     -3.07E+06

   Sub Species                    Mass Fraction     Mole Fraction
   NITROGEN                       7.212259E-01      7.097313E-01
   CARBON DIOXIDE                 1.508177E-01      9.447013E-02
   CARBON MONOXIDE                0.000000E+00      0.000000E+00
   WATER VAPOR                    1.279564E-01      1.957985E-01
   SOOT                           0.000000E+00      0.000000E+00
 
   Viscosity (kg/m/s)   Ambient (293 K):  1.58E-05
                                  500 K:  2.35E-05
                                 1000 K:  3.87E-05
                                 1500 K:  5.15E-05
   Therm. Cond. (W/m/K) Ambient (293 K):  2.34E-02
                                  500 K:  3.64E-02
                                 1000 K:  6.82E-02
                                 1500 K:  9.90E-02
   Spec. Heat (J/kg/K)  Ambient (293 K):  1.11E+03
                                  500 K:  1.17E+03
                                 1000 K:  1.32E+03
                                 1500 K:  1.43E+03
   Diff. Coeff. (m^2/s) Ambient (293 K):  1.93E-05
                                  500 K:  4.88E-05
                                 1000 K:  1.57E-04
                                 1500 K:  3.09E-04


 Gas Phase Reaction Information

   Fuel                                           Heat of Combustion (kJ/kg)
   METHANE                                                        50010.5332

   Stoichiometry

   Primitive Species
   Species ID                                                 Stoich. Coeff.
   METHANE                                                         -1.000000
   NITROGEN                                                         0.000000
   OXYGEN                                                          -2.000000
   CARBON DIOXIDE                                                   1.000000
   WATER VAPOR                                                      2.000000

   Tracked (Lumped) Species
   Species ID                                                 Stoich. Coeff.
   AIR                                                             -9.624770
   METHANE                                                         -1.000000
   PRODUCTS                                                        10.624770

   Reaction Kinetics

   Arrhenius Parameters
   Pre-exponential:    Infinite
   Activation Energy:  N/A

   ODE Solver:  EXPLICIT EULER
   Extinction Model:  EXTINCTION 2
   Critical Flame Temperature (K):   1600.2


 Material Information

   1 FOAM                                                        
     Emissivity                      0.900
     Density (kg/m3)                  20.0
     Specific Heat (kJ/kg/K)          1.00
     Conductivity (W/m/K)           0.2000
     Reaction  1
        Gaseous Yields:
        AIR                                                         :     0.00
        METHANE                                                     :     1.00
        PRODUCTS                                                    :     0.00
        A (1/s)    :  5.22E+11
        E (kJ/kmol):  1.26E+05
        H_R (kJ/kg):  8.00E+02
        N_S        :     1.00


 Surface Conditions

   0 INERT (DEFAULT)

   1 FOAM SLAB
     Material List
          1  FOAM                                                        
     Layer  1
        Thickness   (m):  0.10000
        Density (kg/m3):    20.00
        FOAM, Mass fraction:    1.00
     Total surface density     2.000 kg/m2
     Reaction products considered from the first  0.50 layers.
     Solid Phase Node, Layer, Coordinates(m):
                    0      1       0.0000000
                    1      1       0.0031250
                    2      1       0.0062500
                    3      1       0.0093750
                    4      1       0.0125000
                    5      1       0.0156250
                    6      1       0.0187500
                    7      1       0.0218750
                    8      1       0.0250000
                    9      1       0.0281250
                   10      1       0.0312500
                   11      1       0.0343750
                   12      1       0.0375000
                   13      1       0.0406250
                   14      1       0.0437500
                   15      1       0.0468750
                   16      1       0.0500000
                   17      1       0.0531250
                   18      1       0.0562500
                   19      1       0.0593750
                   20      1       0.0625000
                   21      1       0.0656250
                   22      1       0.0687500
                   23      1       0.0718750
                   24      1       0.0750000
                   25      1       0.0781250
                   26      1       0.0812500
                   27      1       0.0843750
                   28      1       0.0875000
                   29      1       0.0906250
                   30      1       0.0937500
                   31      1       0.0968750
                   32      1       0.1000000
     Exposed Backing

   2 HOT
     Wall or Vent Temperature (C)  1100.0

   3 OPEN
     Passive Vent to Atmosphere

   4 MIRROR
     Symmetry Plane

   5 INTERPOLATED

   6 PERIODIC

   7 HVAC

   8 MASSLESS TRACER

   9 DROPLET

  10 VEGETATION

  11 EVACUATION_OUTFLOW
     Normal Velocity (m/s)         0.000

  12 MASSLESS TARGET


 Device Coordinates

     1 Coords:     0.50     0.50     0.50, Make: null, ID: Mass fuel, Quantity: DENSITY, Species: METHANE
     2 Coords:     0.50     0.50     0.50, Make: null, ID: HRR, Quantity: HRR


 Slice File Information, Mesh     1

   Sampling Interval (s)             0.030

   1 Nodes:   0  10   5   5   0  10, Quantity: TEMPERATURE
   2 Nodes:   0  10   5   5   0  10, Quantity: INTEGRATED INTENSITY
   3 Nodes:   0  10   5   5   0  10, Quantity: METHANE MASS FRACTION


 Boundary File Information

   Sampling Interval (s)             0.060

   1 Quantity: WALL TEMPERATURE
   2 Quantity: BURNING RATE
   3 Quantity: NET HEAT FLUX


 Radiation Model Information

   Number of control angles  104
   Time step increment         3
   Angle increment             5
   Theta band N_phi   Solid angle
     1:        4  0.12
     2:       12  0.11
     3:       16  0.13
     4:       20  0.12
     5:       20  0.12
     6:       16  0.13
     7:       12  0.11
     8:        4  0.12
   Using gray gas absorption.
   Mean beam length  0.500 m
 
 

 Run Time Diagnostics

       Time Step       1   October  9, 2015  10:26:09
       Pressure Iterations:      1
       Maximum Velocity Error:  0.16E-02 on Mesh   1 at (   4   7   5)
       ---------------------------------------------------------------
       CPU/step:     0.164E+00 s, Total CPU:        0.16 s
       Time step:    0.100E-01 s, Total time:       0.01 s
       Max CFL number:  0.17E-02 at (  3,  9,  6)
       Max divergence:  0.22E-02 at ( 10,  1, 10)
       Min divergence: -0.60E-03 at (  8,  5,  6)
       Max VN  number:  0.14E-02 at (  2,  7,  4)
       Radiation Loss to Boundaries:         0.012 kW
 
       Time Step       2   October  9, 2015  10:26:09
       Pressure Iterations:      1
       Maximum Velocity Error:  0.12E-02 on Mesh   1 at (   4   7   5)
       ---------------------------------------------------------------
       CPU/step:     0.899E-02 s, Total CPU:        0.17 s
       Time step:    0.100E-01 s, Total time:       0.02 s
       Max CFL number:  0.17E-02 at (  3,  9,  6)
       Max divergence:  0.55E-02 at ( 10,  1, 10)
       Min divergence: -0.15E-02 at (  8,  5,  6)
       Max VN  number:  0.14E-02 at (  2,  7,  4)
       Radiation Loss to Boundaries:         0.012 kW
 
       Time Step       3   October  9, 2015  10:26:09
       Pressure Iterations:      1
       Maximum Velocity Error:  0.53E-03 on Mesh   1 at (   4   7   5)
       ---------------------------------------------------------------
       CPU/step:     0.553E-02 s, Total CPU:        0.18 s
       Time step:    0.100E-01 s, Total time:       0.03 s
       Max CFL number:  0.17E-02 at (  3,  9,  6)
       Max divergence:  0.95E-02 at ( 10,  1, 10)
       Min divergence: -0.26E-02 at (  8,  5,  6)
       Max VN  number:  0.14E-02 at (  2,  7,  4)
       Radiation Loss to Boundaries:         0.012 kW
 
       Time Step       4   October  9, 2015  10:26:09
       Pressure Iterations:      1
       Maximum Velocity Error:  0.79E-04 on Mesh   1 at (   6   6   4)
       ---------------------------------------------------------------
       CPU/step:     0.128E-01 s, Total CPU:        0.19 s
       Time step:    0.100E-01 s, Total time:       0.04 s
       Max CFL number:  0.17E-02 at (  3,  9,  6)
       Max divergence:  0.14E-01 at ( 10,  1, 10)
       Min divergence: -0.38E-02 at (  6,  2,  5)
       Max VN  number:  0.14E-02 at (  2,  7,  4)
       Radiation Loss to Boundaries:         0.020 kW
 
       Time Step       5   October  9, 2015  10:26:10
       Pressure Iterations:      1
       Maximum Velocity Error:  0.94E-04 on Mesh   1 at (   4   7   5)
       ---------------------------------------------------------------
       CPU/step:     0.673E-02 s, Total CPU:        0.20 s
       Time step:    0.100E-01 s, Total time:       0.05 s
       Max CFL number:  0.18E-02 at (  3,  9,  6)
       Max divergence:  0.19E-01 at ( 10,  1, 10)
       Min divergence: -0.51E-02 at (  6,  2,  5)
       Max VN  number:  0.14E-02 at (  2,  7,  4)
       Radiation Loss to Boundaries:         0.020 kW
 
       Time Step       6   October  9, 2015  10:26:10
       Pressure Iterations:      1
       Maximum Velocity Error:  0.37E-04 on Mesh   1 at (   4   7   5)
       ---------------------------------------------------------------
       CPU/step:     0.145E-01 s, Total CPU:        0.21 s
       Time step:    0.100E-01 s, Total time:       0.06 s
       Max CFL number:  0.18E-02 at (  3,  9,  6)
       Max divergence:  0.24E-01 at ( 10,  1, 10)
       Min divergence: -0.65E-02 at (  6,  2,  5)
       Max VN  number:  0.14E-02 at (  2,  7,  4)
       Radiation Loss to Boundaries:         0.020 kW
 
       Time Step       7   October  9, 2015  10:26:10
       Pressure Iterations:      1
       Maximum Velocity Error:  0.18E-04 on Mesh   1 at (   6   7   4)
       ---------------------------------------------------------------
       CPU/step:     0.104E-01 s, Total CPU:        0.22 s
       Time step:    0.100E-01 s, Total time:       0.07 s
       Max CFL number:  0.18E-02 at (  3,  9,  6)
       Max divergence:  0.29E-01 at ( 10,  1, 10)
       Min divergence: -0.80E-02 at (  5,  3,  6)
       Max VN  number:  0.14E-02 at (  2,  7,  4)
       Radiation Loss to Boundaries:         0.040 kW
 
       Time Step       8   October  9, 2015  10:26:10
       Pressure Iterations:      1
       Maximum Velocity Error:  0.56E-05 on Mesh   1 at (   4   7   5)
       ---------------------------------------------------------------
       CPU/step:     0.708E-02 s, Total CPU:        0.23 s
       Time step:    0.100E-01 s, Total time:       0.08 s
       Max CFL number:  0.18E-02 at (  3,  9,  6)
       Max divergence:  0.35E-01 at ( 10,  1, 10)
       Min divergence: -0.95E-02 at (  5,  2,  5)
       Max VN  number:  0.14E-02 at (  2,  7,  4)
       Radiation Loss to Boundaries:         0.040 kW
 
       Time Step       9   October  9, 2015  10:26:10
       Pressure Iterations:      1
       Maximum Velocity Error:  0.50E-05 on Mesh   1 at (   4   6   6)
       ---------------------------------------------------------------
       CPU/step:     0.670E-02 s, Total CPU:        0.24 s
       Time step:    0.100E-01 s, Total time:       0.09 s
       Max CFL number:  0.19E-02 at (  3,  9,  6)
       Max divergence:  0.41E-01 at ( 10,  1, 10)
       Min divergence: -0.11E-01 at (  5,  2,  5)
       Max VN  number:  0.14E-02 at (  2,  7,  4)
       Radiation Loss to Boundaries:         0.040 kW
 
       Time Step      10   October  9, 2015  10:26:10
       Pressure Iterations:      1
       Maximum Velocity Error:  0.30E-05 on Mesh   1 at (   4   6   6)
       ---------------------------------------------------------------
       CPU/step:     0.119E-01 s, Total CPU:        0.25 s
       Time step:    0.100E-01 s, Total time:       0.10 s
       Max CFL number:  0.19E-02 at (  3,  9,  6)
       Max divergence:  0.47E-01 at ( 10,  1, 10)
       Min divergence: -0.13E-01 at (  5,  9,  5)
       Max VN  number:  0.14E-02 at (  2,  7,  4)
       Radiation Loss to Boundaries:         0.075 kW
 
       Time Step      20   October  9, 2015  10:26:10
       Pressure Iterations:      1
       Maximum Velocity Error:  0.63E-05 on Mesh   1 at (   6   5   4)
       ---------------------------------------------------------------
       CPU/step:     0.934E-02 s, Total CPU:        0.34 s
       Time step:    0.100E-01 s, Total time:       0.20 s
       Max CFL number:  0.25E-02 at ( 10,  1,  1)
       Max divergence:  0.11E+00 at (  1,  1, 10)
       Min divergence: -0.31E-01 at (  5,  2,  5)
       Max VN  number:  0.14E-02 at (  2,  7,  4)
       Radiation Loss to Boundaries:         0.296 kW
 
       Time Step      30   October  9, 2015  10:26:10
       Pressure Iterations:      1
       Maximum Velocity Error:  0.71E-05 on Mesh   1 at (   4   4   7)
       ---------------------------------------------------------------
       CPU/step:     0.959E-02 s, Total CPU:        0.44 s
       Time step:    0.100E-01 s, Total time:       0.30 s
       Max CFL number:  0.41E-02 at ( 10,  1,  1)
       Max divergence:  0.19E+00 at ( 10, 10, 10)
       Min divergence: -0.52E-01 at (  5,  9,  5)
       Max VN  number:  0.14E-02 at (  2,  7,  4)
       Radiation Loss to Boundaries:         0.737 kW
 
       Time Step      40   October  9, 2015  10:26:10
       Pressure Iterations:      1
       Maximum Velocity Error:  0.12E-04 on Mesh   1 at (   6   6   4)
       ---------------------------------------------------------------
       CPU/step:     0.945E-02 s, Total CPU:        0.53 s
       Time step:    0.100E-01 s, Total time:       0.40 s
       Max CFL number:  0.64E-02 at ( 10,  1,  1)
       Max divergence:  0.25E+00 at (  1,  1, 10)
       Min divergence: -0.73E-01 at (  5,  9,  6)
       Max VN  number:  0.17E-02 at (  2,  9,  5)
       Radiation Loss to Boundaries:         1.755 kW
 
       Time Step      50   October  9, 2015  10:26:10
       Pressure Iterations:      1
       Maximum Velocity Error:  0.39E-04 on Mesh   1 at (   6   5   4)
       ---------------------------------------------------------------
       CPU/step:     0.936E-02 s, Total CPU:        0.63 s
       Time step:    0.100E-01 s, Total time:       0.50 s
       Max CFL number:  0.96E-02 at ( 10,  1,  5)
       Max divergence:  0.31E+00 at (  1,  1, 10)
       Min divergence: -0.94E-01 at (  5,  5,  9)
       Max VN  number:  0.26E-02 at (  2,  9,  5)
       Radiation Loss to Boundaries:         2.884 kW
 
       Time Step      60   October  9, 2015  10:26:10
       Pressure Iterations:      1
       Maximum Velocity Error:  0.21E-04 on Mesh   1 at (   6   6   4)
       ---------------------------------------------------------------
       CPU/step:     0.920E-02 s, Total CPU:        0.72 s
       Time step:    0.100E-01 s, Total time:       0.60 s
       Max CFL number:  0.16E-01 at ( 10,  1,  5)
       Max divergence:  0.36E+00 at (  1,  1, 10)
       Min divergence: -0.11E+00 at (  5,  5,  9)
       Max VN  number:  0.41E-02 at (  2,  9,  5)
       Radiation Loss to Boundaries:         4.357 kW
 
       Time Step      70   October  9, 2015  10:26:10
       Pressure Iterations:      1
       Maximum Velocity Error:  0.84E-04 on Mesh   1 at (   6   5   4)
       ---------------------------------------------------------------
       CPU/step:     0.104E-01 s, Total CPU:        0.82 s
       Time step:    0.100E-01 s, Total time:       0.70 s
       Max CFL number:  0.24E-01 at ( 10,  1,  5)
       Max divergence:  0.40E+00 at (  1,  1, 10)
       Min divergence: -0.13E+00 at (  5,  5,  9)
       Max VN  number:  0.61E-02 at (  2,  9,  5)
       Radiation Loss to Boundaries:         6.715 kW
 
       Time Step      80   October  9, 2015  10:26:10
       Pressure Iterations:      1
       Maximum Velocity Error:  0.82E-04 on Mesh   1 at (   6   5   7)
       ---------------------------------------------------------------
       CPU/step:     0.101E-01 s, Total CPU:        0.92 s
       Time step:    0.100E-01 s, Total time:       0.80 s
       Max CFL number:  0.34E-01 at ( 10,  1,  5)
       Max divergence:  0.41E+00 at (  1,  1, 10)
       Min divergence: -0.14E+00 at (  5,  6,  9)
       Max VN  number:  0.89E-02 at (  2,  9,  5)
       Radiation Loss to Boundaries:         8.669 kW
 
       Time Step      90   October  9, 2015  10:26:10
       Pressure Iterations:      1
       Maximum Velocity Error:  0.34E-04 on Mesh   1 at (   6   6   4)
       ---------------------------------------------------------------
       CPU/step:     0.102E-01 s, Total CPU:        1.03 s
       Time step:    0.100E-01 s, Total time:       0.90 s
       Max CFL number:  0.48E-01 at ( 10,  1,  6)
       Max divergence:  0.40E+00 at (  1,  1, 10)
       Min divergence: -0.15E+00 at (  5,  6,  9)
       Max VN  number:  0.12E-01 at (  2,  9,  5)
       Radiation Loss to Boundaries:        10.985 kW
 
       Time Step     100   October  9, 2015  10:26:10
       Pressure Iterations:      1
       Maximum Velocity Error:  0.16E-03 on Mesh   1 at (   6   6   4)
       ---------------------------------------------------------------
       CPU/step:     0.998E-02 s, Total CPU:        1.13 s
       Time step:    0.100E-01 s, Total time:       1.00 s
       Max CFL number:  0.64E-01 at ( 10,  1,  6)
       Max divergence:  0.37E+00 at (  1,  1, 10)
       Min divergence: -0.16E+00 at (  5,  5,  2)
       Max VN  number:  0.17E-01 at ( 10,  1, 10)
       Radiation Loss to Boundaries:        14.216 kW
 
       Time Step     200   October  9, 2015  10:26:11
       Pressure Iterations:      1
       Maximum Velocity Error:  0.12E-02 on Mesh   1 at (   7   5   7)
       ---------------------------------------------------------------
       CPU/step:     0.101E-01 s, Total CPU:        2.14 s
       Time step:    0.100E-01 s, Total time:       2.00 s
       Max CFL number:  0.23E+00 at (  8,  5,  8)
       Max divergence:  0.11E+01 at (  5,  5,  8)
       Min divergence: -0.84E+00 at (  8,  6,  9)
       Max VN  number:  0.11E+00 at (  8,  5,  8)
       Radiation Loss to Boundaries:        78.103 kW
 
       Time Step     300   October  9, 2015  10:26:13
       Pressure Iterations:     10
       Maximum Velocity Error:  0.27E+00 on Mesh   1 at (   5   5   4)
       ---------------------------------------------------------------
       CPU/step:     0.105E-01 s, Total CPU:        3.19 s
       Time step:    0.100E-01 s, Total time:       3.00 s
       Max CFL number:  0.23E+00 at (  4,  4,  7)
       Max divergence:  0.29E+00 at (  5,  8,  3)
       Min divergence: -0.30E+00 at (  7,  7,  8)
       Max VN  number:  0.71E-01 at (  6,  4,  8)
       Radiation Loss to Boundaries:       103.083 kW
 
       Time Step     400   October  9, 2015  10:26:14
       Pressure Iterations:      1
       Maximum Velocity Error:  0.91E-03 on Mesh   1 at (   5   5   4)
       ---------------------------------------------------------------
       CPU/step:     0.101E-01 s, Total CPU:        4.20 s
       Time step:    0.100E-01 s, Total time:       4.00 s
       Max CFL number:  0.11E+00 at (  8,  6,  7)
       Max divergence:  0.13E+00 at (  8,  7,  5)
       Min divergence: -0.24E+00 at (  3,  5,  8)
       Max VN  number:  0.46E-01 at (  7,  4,  9)
       Radiation Loss to Boundaries:        96.412 kW
 
       Time Step     500   October  9, 2015  10:26:15
       Pressure Iterations:      1
       Maximum Velocity Error:  0.56E-03 on Mesh   1 at (   6   7   7)
       ---------------------------------------------------------------
       CPU/step:     0.106E-01 s, Total CPU:        5.26 s
       Time step:    0.100E-01 s, Total time:       5.00 s
       Max CFL number:  0.90E-01 at (  8,  6,  9)
       Max divergence:  0.10E+00 at (  3,  7,  7)
       Min divergence: -0.17E+00 at ( 10, 10,  6)
       Max VN  number:  0.41E-01 at (  8,  6,  9)
       Radiation Loss to Boundaries:        86.491 kW
 
       Time Step     600   October  9, 2015  10:26:16
       Pressure Iterations:      1
       Maximum Velocity Error:  0.61E-02 on Mesh   1 at (   5   6   4)
       ---------------------------------------------------------------
       CPU/step:     0.105E-01 s, Total CPU:        6.31 s
       Time step:    0.100E-01 s, Total time:       6.00 s
       Max CFL number:  0.82E-01 at (  8,  6,  9)
       Max divergence:  0.31E-01 at (  9,  7,  7)
       Min divergence: -0.89E-01 at (  8,  6,  7)
       Max VN  number:  0.41E-01 at (  9,  6, 10)
       Radiation Loss to Boundaries:        74.582 kW
 
       Time Step     700   October  9, 2015  10:26:17
       Pressure Iterations:      1
       Maximum Velocity Error:  0.20E-02 on Mesh   1 at (   5   5   4)
       ---------------------------------------------------------------
       CPU/step:     0.979E-02 s, Total CPU:        7.29 s
       Time step:    0.100E-01 s, Total time:       7.00 s
       Max CFL number:  0.75E-01 at (  8,  6,  9)
       Max divergence: -0.34E-01 at (  8,  7,  7)
       Min divergence: -0.19E+00 at (  8,  7,  4)
       Max VN  number:  0.33E-01 at (  5,  8,  9)
       Radiation Loss to Boundaries:        65.446 kW
 
       Time Step     800   October  9, 2015  10:26:18
       Pressure Iterations:      1
       Maximum Velocity Error:  0.55E-02 on Mesh   1 at (   4   5   7)
       ---------------------------------------------------------------
       CPU/step:     0.101E-01 s, Total CPU:        8.30 s
       Time step:    0.100E-01 s, Total time:       8.00 s
       Max CFL number:  0.71E-01 at (  6,  8,  9)
       Max divergence: -0.16E-01 at (  6,  7,  2)
       Min divergence: -0.23E+00 at (  7,  7,  8)
       Max VN  number:  0.29E-01 at (  6,  8,  9)
       Radiation Loss to Boundaries:        61.546 kW
 
       Time Step     900   October  9, 2015  10:26:19
       Pressure Iterations:      1
       Maximum Velocity Error:  0.29E-02 on Mesh   1 at (   5   5   7)
       ---------------------------------------------------------------
       CPU/step:     0.106E-01 s, Total CPU:        9.36 s
       Time step:    0.100E-01 s, Total time:       9.00 s
       Max CFL number:  0.51E-01 at (  6,  8,  7)
       Max divergence:  0.16E-02 at (  4,  7,  2)
       Min divergence: -0.12E+00 at (  4,  3,  4)
       Max VN  number:  0.26E-01 at (  7,  5,  9)
       Radiation Loss to Boundaries:        57.333 kW
 
       Time Step    1000   October  9, 2015  10:26:20
       Pressure Iterations:     10
       Maximum Velocity Error:  0.18E+00 on Mesh   1 at (   6   4   6)
       ---------------------------------------------------------------
       CPU/step:     0.101E-01 s, Total CPU:       10.37 s
       Time step:    0.100E-01 s, Total time:      10.00 s
       Max CFL number:  0.15E+00 at (  5,  7,  4)
       Max divergence:  0.15E+01 at (  4,  6,  7)
       Min divergence: -0.63E+01 at (  7,  5,  7)
       Max VN  number:  0.75E-01 at (  6,  7,  4)
       Radiation Loss to Boundaries:        46.182 kW
 
       Time Step    1100   October  9, 2015  10:26:21
       Pressure Iterations:      1
       Maximum Velocity Error:  0.13E-02 on Mesh   1 at (   5   5   4)
       ---------------------------------------------------------------
       CPU/step:     0.108E-01 s, Total CPU:       11.44 s
       Time step:    0.100E-01 s, Total time:      11.00 s
       Max CFL number:  0.56E-01 at (  7,  4,  8)
       Max divergence:  0.11E-01 at (  4,  7,  6)
       Min divergence: -0.82E-01 at (  4,  7,  4)
       Max VN  number:  0.29E-01 at (  4,  4,  9)
       Radiation Loss to Boundaries:        50.796 kW
 
       Time Step    1200   October  9, 2015  10:26:22
       Pressure Iterations:      1
       Maximum Velocity Error:  0.74E-02 on Mesh   1 at (   4   6   6)
       ---------------------------------------------------------------
       CPU/step:     0.980E-02 s, Total CPU:       12.42 s
       Time step:    0.100E-01 s, Total time:      12.00 s
       Max CFL number:  0.31E-01 at (  5,  7,  8)
       Max divergence:  0.44E-02 at (  7,  5,  2)
       Min divergence: -0.57E-01 at (  4,  7,  4)
       Max VN  number:  0.15E-01 at (  9,  9,  9)
       Radiation Loss to Boundaries:        48.403 kW
 
       Time Step    1300   October  9, 2015  10:26:23
       Pressure Iterations:      1
       Maximum Velocity Error:  0.79E-02 on Mesh   1 at (   7   6   6)
       ---------------------------------------------------------------
       CPU/step:     0.987E-02 s, Total CPU:       13.41 s
       Time step:    0.100E-01 s, Total time:      13.00 s
       Max CFL number:  0.26E-01 at (  1,  5,  6)
       Max divergence: -0.11E-01 at (  7,  5,  3)
       Min divergence: -0.75E-01 at (  7,  5,  4)
       Max VN  number:  0.13E-01 at (  9,  9,  9)
       Radiation Loss to Boundaries:        45.674 kW
 
       Time Step    1400   October  9, 2015  10:26:24
       Pressure Iterations:      1
       Maximum Velocity Error:  0.74E-02 on Mesh   1 at (   5   6   5)
       ---------------------------------------------------------------
       CPU/step:     0.956E-02 s, Total CPU:       14.37 s
       Time step:    0.100E-01 s, Total time:      14.00 s
       Max CFL number:  0.11E+00 at (  4,  5,  6)
       Max divergence:  0.15E+00 at (  4,  5,  6)
       Min divergence: -0.15E+00 at (  5,  6,  7)
       Max VN  number:  0.53E-01 at (  4,  5,  7)
       Radiation Loss to Boundaries:        46.932 kW
 
       Time Step    1500   October  9, 2015  10:26:25
       Pressure Iterations:      1
       Maximum Velocity Error:  0.80E-02 on Mesh   1 at (   5   5   5)
       ---------------------------------------------------------------
       CPU/step:     0.893E-02 s, Total CPU:       15.26 s
       Time step:    0.100E-01 s, Total time:      15.00 s
       Max CFL number:  0.66E-01 at (  7,  7,  9)
       Max divergence:  0.24E-01 at (  5,  6,  4)
       Min divergence: -0.33E-01 at (  5,  6,  7)
       Max VN  number:  0.30E-01 at (  6,  4,  9)
       Radiation Loss to Boundaries:        44.171 kW
 
       Time Step    1600   October  9, 2015  10:26:26
       Pressure Iterations:      1
       Maximum Velocity Error:  0.40E-01 on Mesh   1 at (   6   6   5)
       ---------------------------------------------------------------
       CPU/step:     0.930E-02 s, Total CPU:       16.19 s
       Time step:    0.100E-01 s, Total time:      16.00 s
       Max CFL number:  0.34E-01 at (  5,  6,  5)
       Max divergence: -0.62E-02 at (  7,  6,  8)
       Min divergence: -0.38E-01 at (  5,  7,  4)
       Max VN  number:  0.21E-01 at (  7,  8, 10)
       Radiation Loss to Boundaries:        41.645 kW
 
       Time Step    1700   October  9, 2015  10:26:27
       Pressure Iterations:      1
       Maximum Velocity Error:  0.35E-03 on Mesh   1 at (   5   6   5)
       ---------------------------------------------------------------
       CPU/step:     0.914E-02 s, Total CPU:       17.10 s
       Time step:    0.100E-01 s, Total time:      17.00 s
       Max CFL number:  0.22E-01 at (  6,  6,  5)
       Max divergence: -0.16E-02 at (  5,  6,  3)
       Min divergence: -0.25E-01 at (  6,  5,  4)
       Max VN  number:  0.11E-01 at (  6,  3,  9)
       Radiation Loss to Boundaries:        40.171 kW
 
       Time Step    1800   October  9, 2015  10:26:28
       Pressure Iterations:      1
       Maximum Velocity Error:  0.18E-03 on Mesh   1 at (   5   6   5)
       ---------------------------------------------------------------
       CPU/step:     0.974E-02 s, Total CPU:       18.08 s
       Time step:    0.100E-01 s, Total time:      18.00 s
       Max CFL number:  0.20E-01 at ( 10,  6,  9)
       Max divergence:  0.88E-02 at (  5,  6,  2)
       Min divergence: -0.35E-01 at (  6,  5,  3)
       Max VN  number:  0.11E-01 at (  7,  9,  9)
       Radiation Loss to Boundaries:        38.547 kW
 
       Time Step    1900   October  9, 2015  10:26:29
       Pressure Iterations:      1
       Maximum Velocity Error:  0.10E-01 on Mesh   1 at (   6   5   6)
       ---------------------------------------------------------------
       CPU/step:     0.925E-02 s, Total CPU:       19.00 s
       Time step:    0.100E-01 s, Total time:      19.00 s
       Max CFL number:  0.21E-01 at (  7,  2, 10)
       Max divergence:  0.89E-02 at (  7,  5,  2)
       Min divergence: -0.15E-01 at (  6,  5,  3)
       Max VN  number:  0.10E-01 at (  7,  9,  9)
       Radiation Loss to Boundaries:        36.211 kW
 
       Time Step    2000   October  9, 2015  10:26:30
       Pressure Iterations:     10
       Maximum Velocity Error:  0.95E-01 on Mesh   1 at (   6   5   5)
       ---------------------------------------------------------------
       CPU/step:     0.882E-02 s, Total CPU:       19.88 s
       Time step:    0.100E-01 s, Total time:      20.00 s
       Max CFL number:  0.32E-01 at (  5,  6,  5)
       Max divergence: -0.79E-02 at (  6,  7,  5)
       Min divergence: -0.33E-01 at (  3,  5,  6)
       Max VN  number:  0.90E-02 at (  9,  2,  9)
       Radiation Loss to Boundaries:        34.257 kW
 
       Time Step    2100   October  9, 2015  10:26:31
       Pressure Iterations:      1
       Maximum Velocity Error:  0.00E+00 on Mesh   1 at (   5   6   6)
       ---------------------------------------------------------------
       CPU/step:     0.865E-02 s, Total CPU:       20.75 s
       Time step:    0.100E-01 s, Total time:      21.00 s
       Max CFL number:  0.87E-01 at (  5,  5,  9)
       Max divergence:  0.29E-01 at (  5,  5,  7)
       Min divergence: -0.33E-01 at (  5,  6,  9)
       Max VN  number:  0.36E-01 at (  5,  6, 10)
       Radiation Loss to Boundaries:        34.854 kW
 
       Time Step    2200   October  9, 2015  10:26:32
       Pressure Iterations:      1
       Maximum Velocity Error:  0.00E+00 on Mesh   1 at (   5   6   6)
       ---------------------------------------------------------------
       CPU/step:     0.837E-02 s, Total CPU:       21.59 s
       Time step:    0.100E-01 s, Total time:      22.00 s
       Max CFL number:  0.36E-01 at (  5,  6,  9)
       Max divergence:  0.12E-01 at (  4,  6,  4)
       Min divergence: -0.16E-01 at (  3,  5,  8)
       Max VN  number:  0.18E-01 at (  5,  4,  9)
       Radiation Loss to Boundaries:        33.064 kW
 
       Time Step    2300   October  9, 2015  10:26:32
       Pressure Iterations:      1
       Maximum Velocity Error:  0.00E+00 on Mesh   1 at (   5   6   6)
       ---------------------------------------------------------------
       CPU/step:     0.831E-02 s, Total CPU:       22.42 s
       Time step:    0.100E-01 s, Total time:      23.00 s
       Max CFL number:  0.22E-01 at (  5,  3,  8)
       Max divergence:  0.92E-02 at (  4,  6,  4)
       Min divergence: -0.98E-02 at (  5,  3,  8)
       Max VN  number:  0.15E-01 at (  5,  4,  8)
       Radiation Loss to Boundaries:        31.335 kW
 
       Time Step    2400   October  9, 2015  10:26:33
       Pressure Iterations:      1
       Maximum Velocity Error:  0.00E+00 on Mesh   1 at (   5   6   6)
       ---------------------------------------------------------------
       CPU/step:     0.840E-02 s, Total CPU:       23.26 s
       Time step:    0.100E-01 s, Total time:      24.00 s
       Max CFL number:  0.19E-01 at (  9,  5, 10)
       Max divergence:  0.68E-02 at (  8, 10,  4)
       Min divergence: -0.54E-02 at (  5,  3,  8)
       Max VN  number:  0.12E-01 at (  5,  3,  8)
       Radiation Loss to Boundaries:        29.670 kW
 
       Time Step    2500   October  9, 2015  10:26:34
       Pressure Iterations:      1
       Maximum Velocity Error:  0.00E+00 on Mesh   1 at (   5   6   6)
       ---------------------------------------------------------------
       CPU/step:     0.888E-02 s, Total CPU:       24.15 s
       Time step:    0.100E-01 s, Total time:      25.00 s
       Max CFL number:  0.15E-01 at (  1, 10,  5)
       Max divergence:  0.46E-02 at (  2,  5,  9)
       Min divergence: -0.49E-02 at (  1, 10,  5)
       Max VN  number:  0.97E-02 at (  5,  2,  8)
       Radiation Loss to Boundaries:        28.035 kW
 
       Time Step    2600   October  9, 2015  10:26:35
       Pressure Iterations:      1
       Maximum Velocity Error:  0.00E+00 on Mesh   1 at (   5   6   6)
       ---------------------------------------------------------------
       CPU/step:     0.854E-02 s, Total CPU:       25.00 s
       Time step:    0.100E-01 s, Total time:      26.00 s
       Max CFL number:  0.15E-01 at (  5,  1,  8)
       Max divergence:  0.35E-02 at (  4, 10,  5)
       Min divergence: -0.40E-02 at (  1,  3, 10)
       Max VN  number:  0.84E-02 at (  5,  2,  8)
       Radiation Loss to Boundaries:        26.491 kW
 
       Time Step    2700   October  9, 2015  10:26:36
       Pressure Iterations:      1
       Maximum Velocity Error:  0.00E+00 on Mesh   1 at (   5   6   6)
       ---------------------------------------------------------------
       CPU/step:     0.126E-01 s, Total CPU:       26.26 s
       Time step:    0.100E-01 s, Total time:      27.00 s
       Max CFL number:  0.15E-01 at (  5,  3, 10)
       Max divergence:  0.38E-02 at (  4, 10,  5)
       Min divergence: -0.31E-02 at (  1,  6, 10)
       Max VN  number:  0.63E-02 at (  5,  2,  8)
       Radiation Loss to Boundaries:        25.022 kW
 
       Time Step    2800   October  9, 2015  10:26:37
       Pressure Iterations:      1
       Maximum Velocity Error:  0.00E+00 on Mesh   1 at (   5   6   6)
       ---------------------------------------------------------------
       CPU/step:     0.854E-02 s, Total CPU:       27.12 s
       Time step:    0.100E-01 s, Total time:      28.00 s
       Max CFL number:  0.16E-01 at (  5,  4, 10)
       Max divergence:  0.34E-02 at (  2,  9,  6)
       Min divergence: -0.37E-02 at (  2,  9,  3)
       Max VN  number:  0.52E-02 at (  4,  2,  8)
       Radiation Loss to Boundaries:        23.625 kW
 
       Time Step    2900   October  9, 2015  10:26:38
       Pressure Iterations:      1
       Maximum Velocity Error:  0.00E+00 on Mesh   1 at (   5   6   6)
       ---------------------------------------------------------------
       CPU/step:     0.854E-02 s, Total CPU:       27.97 s
       Time step:    0.100E-01 s, Total time:      29.00 s
       Max CFL number:  0.16E-01 at (  5,  4, 10)
       Max divergence:  0.27E-02 at (  3,  2,  2)
       Min divergence: -0.31E-02 at ( 10,  9, 10)
       Max VN  number:  0.56E-02 at (  9,  6,  9)
       Radiation Loss to Boundaries:        22.315 kW
 
       Time Step    3000   October  9, 2015  10:26:39
       Pressure Iterations:      1
       Maximum Velocity Error:  0.00E+00 on Mesh   1 at (   5   6   6)
       ---------------------------------------------------------------
       CPU/step:     0.842E-02 s, Total CPU:       28.81 s
       Time step:    0.100E-01 s, Total time:      30.00 s
       Max CFL number:  0.13E-01 at (  5,  5, 10)
       Max divergence:  0.28E-02 at (  6,  5,  4)
       Min divergence: -0.26E-02 at (  2,  1,  5)
       Max VN  number:  0.55E-02 at (  9,  6,  9)
       Radiation Loss to Boundaries:        21.061 kW
 


 DEVICE Activation Times



 CPU Time Usage, Mesh   1

                 CPU (s)        %  
       ----------------------------
       MAIN        34.71     100.00
       DIVG         6.31      18.16
       MASS         2.65       7.62
       VELO         6.40      18.44
       PRES         1.04       2.99
       WALL         3.18       9.17
       DUMP         4.36      12.55
       PART         0.00       0.00
       RADI         3.65      10.52
       FIRE         1.18       3.40
       COMM         0.05       0.14
       SubTot      28.81      83.00


 Time Stepping Wall Clock Time (s):       29.676
 Total Elapsed Wall Clock Time (s):       34.751

STOP: FDS completed successfully (CHID: box_burn_away1)
