
 Fire Dynamics Simulator

 Compilation Date : Sat, 11 Apr 2015
 Current Date     : October  9, 2015  10:17:40
 Version          : FDS 6.2.0
 SVN Revision No. : 22343

 MPI Enabled; Number of MPI Processes:     1
 OpenMP Enabled; Number of OpenMP Threads:   4

 Job TITLE        : Single Couch Test Case
 Job ID string    : couch2


 Grid Dimensions, Mesh     1

   Cells in the X Direction            24
   Cells in the Y Direction            10
   Cells in the Z Direction            24


 Physical Dimensions, Mesh     1

   Length (m)                       2.400
   Width  (m)                       1.000
   Height (m)                       2.400
   Initial Time Step (s)            0.102


 Miscellaneous Parameters

   Simulation Start Time (s)          0.0
   Simulation End Time (s)          600.0
   LES Calculation
   Deardorff Model (C_DEARDORFF)     0.10
   Turbulent Prandtl Number          0.50
   Turbulent Schmidt Number          0.50
   Ambient Temperature (C)          20.00


 Mass Fraction Transformation Matrix to Convert Species Mixtures (Columns) to Primitive Species (Rows)

                         AIR       PROPANE   PRODUCTS
   PROPANE               0.000000  1.000000  0.000000
   NITROGEN              0.763018  0.000000  0.716994
   OXYGEN                0.231164  0.000000  0.000000
   CARBON DIOXIDE        0.000592  0.000000  0.178969
   CARBON MONOXIDE       0.000000  0.000000  0.000000
   WATER VAPOR           0.005226  0.000000  0.103434
   SOOT                  0.000000  0.000000  0.000603


 Primitive Species Information

   PROPANE                                                     
   Gas Species
   Molecular Weight (g/mol)            44.09562
   Ambient Density (kg/m^3)            1.833
   Enthalpy of Formation (J/kg)       -2.37E+06

   NITROGEN                                                    
   Gas Species
   Molecular Weight (g/mol)            28.01340
   Ambient Density (kg/m^3)            1.165
   Enthalpy of Formation (J/kg)        0.00E+00

   OXYGEN                                                      
   Gas Species
   Molecular Weight (g/mol)            31.99880
   Ambient Density (kg/m^3)            1.330
   Enthalpy of Formation (J/kg)        0.00E+00

   CARBON DIOXIDE                                              
   Gas Species
   Molecular Weight (g/mol)            44.00950
   Ambient Density (kg/m^3)            1.830
   Enthalpy of Formation (J/kg)       -8.94E+06

   CARBON MONOXIDE                                             
   Gas Species
   Molecular Weight (g/mol)            28.01010
   Ambient Density (kg/m^3)            1.164
   Enthalpy of Formation (J/kg)       -3.95E+06

   WATER VAPOR                                                 
   Gas Species
   Molecular Weight (g/mol)            18.01528
   Ambient Density (kg/m^3)            0.749
   Enthalpy of Formation (J/kg)       -1.34E+07

   SOOT                                                        
   Gas Species
   Molecular Weight (g/mol)            10.91042
   Ambient Density (kg/m^3)            0.454
   Enthalpy of Formation (J/kg)        0.00E+00


 Tracked (Lumped) Species Information

   AIR                                                         
   Molecular Weight (g/mol)            28.76431
   Ambient Density (kg/m^3)            1.196
   Initial Mass Fraction               1.000
   Enthalpy of Formation (J/kg)     -7.54E+04

   Sub Species                    Mass Fraction     Mole Fraction
   NITROGEN                       7.630183E-01      7.834714E-01
   OXYGEN                         2.311635E-01      2.077972E-01
   CARBON DIOXIDE                 5.918904E-04      3.868556E-04
   WATER VAPOR                    5.226257E-03      8.344566E-03
 
   Viscosity (kg/m/s)   Ambient (293 K):  1.79E-05
                                  500 K:  2.61E-05
                                 1000 K:  4.12E-05
                                 1500 K:  5.36E-05
   Therm. Cond. (W/m/K) Ambient (293 K):  2.54E-02
                                  500 K:  3.80E-02
                                 1000 K:  6.62E-02
                                 1500 K:  9.20E-02
   Spec. Heat (J/kg/K)  Ambient (293 K):  1.01E+03
                                  500 K:  1.04E+03
                                 1000 K:  1.15E+03
                                 1500 K:  1.22E+03
   Diff. Coeff. (m^2/s) Ambient (293 K):  1.99E-05
                                  500 K:  4.96E-05
                                 1000 K:  1.58E-04
                                 1500 K:  3.09E-04

   PROPANE                                                     
   Molecular Weight (g/mol)            44.09562
   Ambient Density (kg/m^3)            1.833
   Initial Mass Fraction               0.000
   Enthalpy of Formation (J/kg)     -2.37E+06

   Sub Species                    Mass Fraction     Mole Fraction
   PROPANE                        1.000000E+00      1.000000E+00
 
   Viscosity (kg/m/s)   Ambient (293 K):  8.08E-06
                                  500 K:  1.31E-05
                                 1000 K:  2.23E-05
                                 1500 K:  2.96E-05
   Therm. Cond. (W/m/K) Ambient (293 K):  1.70E-02
                                  500 K:  4.14E-02
                                 1000 K:  1.12E-01
                                 1500 K:  1.73E-01
   Spec. Heat (J/kg/K)  Ambient (293 K):  1.68E+03
                                  500 K:  2.53E+03
                                 1000 K:  4.00E+03
                                 1500 K:  4.69E+03
   Diff. Coeff. (m^2/s) Ambient (293 K):  1.11E-05
                                  500 K:  2.86E-05
                                 1000 K:  9.32E-05
                                 1500 K:  1.83E-04

   PRODUCTS                                                    
   Molecular Weight (g/mol)            28.20236
   Ambient Density (kg/m^3)            1.172
   Initial Mass Fraction               0.000
   Enthalpy of Formation (J/kg)     -2.99E+06

   Sub Species                    Mass Fraction     Mole Fraction
   NITROGEN                       7.169941E-01      7.218307E-01
   CARBON DIOXIDE                 1.789688E-01      1.146876E-01
   CARBON MONOXIDE                0.000000E+00      0.000000E+00
   WATER VAPOR                    1.034339E-01      1.619226E-01
   SOOT                           6.031858E-04      1.559176E-03
 
   Viscosity (kg/m/s)   Ambient (293 K):  1.60E-05
                                  500 K:  2.37E-05
                                 1000 K:  3.88E-05
                                 1500 K:  5.15E-05
   Therm. Cond. (W/m/K) Ambient (293 K):  2.34E-02
                                  500 K:  3.63E-02
                                 1000 K:  6.76E-02
                                 1500 K:  9.75E-02
   Spec. Heat (J/kg/K)  Ambient (293 K):  1.09E+03
                                  500 K:  1.14E+03
                                 1000 K:  1.29E+03
                                 1500 K:  1.40E+03
   Diff. Coeff. (m^2/s) Ambient (293 K):  1.91E-05
                                  500 K:  4.83E-05
                                 1000 K:  1.56E-04
                                 1500 K:  3.05E-04


 Gas Phase Reaction Information

   Fuel                                           Heat of Combustion (kJ/kg)
   PROPANE                                                        45998.6831

   Stoichiometry

   Primitive Species
   Species ID                                                 Stoich. Coeff.
   PROPANE                                                         -1.000000
   NITROGEN                                                         0.000000
   OXYGEN                                                          -4.962615
   CARBON DIOXIDE                                                   2.963626
   WATER VAPOR                                                      3.997979
   SOOT                                                             0.040416

   Tracked (Lumped) Species
   Species ID                                                 Stoich. Coeff.
   AIR                                                            -23.882015
   PROPANE                                                         -1.000000
   PRODUCTS                                                        25.921421

   Reaction Kinetics

   Arrhenius Parameters
   Pre-exponential:    Infinite
   Activation Energy:  N/A

   ODE Solver:  EXPLICIT EULER
   Extinction Model:  EXTINCTION 2
   Critical Flame Temperature (K):   1600.2


 Material Information

   1 FABRIC                                                      
     Properties completely fabricated
     Emissivity                      0.900
     Density (kg/m3)                 100.0
     Specific Heat (kJ/kg/K)          1.00
     Conductivity (W/m/K)           0.1000
     Reaction  1
        Gaseous Yields:
        AIR                                                         :     0.00
        PROPANE                                                     :     1.00
        PRODUCTS                                                    :     0.00
        A (1/s)    :  1.82E+15
        E (kJ/kmol):  1.99E+05
        H_R (kJ/kg):  3.00E+03
        N_S        :     1.00

   2 FOAM                                                        
     Properties completely fabricated
     Emissivity                      0.900
     Density (kg/m3)                  40.0
     Specific Heat (kJ/kg/K)          1.00
     Conductivity (W/m/K)           0.0500
     Reaction  1
        Gaseous Yields:
        AIR                                                         :     0.00
        PROPANE                                                     :     1.00
        PRODUCTS                                                    :     0.00
        A (1/s)    :  1.82E+15
        E (kJ/kmol):  1.99E+05
        H_R (kJ/kg):  1.50E+03
        N_S        :     1.00

   3 GYPSUM PLASTER                                              
     Quintiere, Fire Behavior
     Emissivity                      0.900
     Density (kg/m3)                1440.0
     Specific Heat (kJ/kg/K)          0.84
     Conductivity (W/m/K)           0.4800


 Surface Conditions

   0 INERT

   1 UPHOLSTERY
     Properties completely fabricated
     Material List
          1  FABRIC                                                      
          2  FOAM                                                        
     Layer  1
        Thickness   (m):  0.00200
        Density (kg/m3):   100.00
        FABRIC, Mass fraction:    1.00
     Layer  2
        Thickness   (m):  0.10000
        Density (kg/m3):    40.00
        FOAM, Mass fraction:    1.00
     Total surface density     4.200 kg/m2
     Reaction products considered from the first  1.00 layers.
     Solid Phase Node, Layer, Coordinates(m):
                    0      1       0.0000000
                    1      1       0.0006667
                    2      1       0.0013333
                    3      1       0.0020000
                    4      2       0.0031111
                    5      2       0.0042222
                    6      2       0.0053333
                    7      2       0.0064444
                    8      2       0.0075556
                    9      2       0.0086667
                   10      2       0.0097778
                   11      2       0.0108889
                   12      2       0.0120000
                   13      2       0.0131111
                   14      2       0.0142222
                   15      2       0.0153333
                   16      2       0.0164444
                   17      2       0.0175556
                   18      2       0.0186667
                   19      2       0.0197778
                   20      2       0.0208889
                   21      2       0.0220000
                   22      2       0.0231111
                   23      2       0.0242222
                   24      2       0.0253333
                   25      2       0.0264444
                   26      2       0.0275556
                   27      2       0.0286667
                   28      2       0.0297778
                   29      2       0.0308889
                   30      2       0.0320000
                   31      2       0.0331111
                   32      2       0.0342222
                   33      2       0.0353333
                   34      2       0.0364444
                   35      2       0.0375556
                   36      2       0.0386667
                   37      2       0.0397778
                   38      2       0.0408889
                   39      2       0.0420000
                   40      2       0.0431111
                   41      2       0.0442222
                   42      2       0.0453333
                   43      2       0.0464444
                   44      2       0.0475556
                   45      2       0.0486667
                   46      2       0.0497778
                   47      2       0.0508889
                   48      2       0.0520000
                   49      2       0.0531111
                   50      2       0.0542222
                   51      2       0.0553333
                   52      2       0.0564444
                   53      2       0.0575556
                   54      2       0.0586667
                   55      2       0.0597778
                   56      2       0.0608889
                   57      2       0.0620000
                   58      2       0.0631111
                   59      2       0.0642222
                   60      2       0.0653333
                   61      2       0.0664444
                   62      2       0.0675556
                   63      2       0.0686667
                   64      2       0.0697778
                   65      2       0.0708889
                   66      2       0.0720000
                   67      2       0.0731111
                   68      2       0.0742222
                   69      2       0.0753333
                   70      2       0.0764444
                   71      2       0.0775556
                   72      2       0.0786667
                   73      2       0.0797778
                   74      2       0.0808889
                   75      2       0.0820000
                   76      2       0.0831111
                   77      2       0.0842222
                   78      2       0.0853333
                   79      2       0.0864444
                   80      2       0.0875556
                   81      2       0.0886667
                   82      2       0.0897778
                   83      2       0.0908889
                   84      2       0.0920000
                   85      2       0.0931111
                   86      2       0.0942222
                   87      2       0.0953333
                   88      2       0.0964444
                   89      2       0.0975556
                   90      2       0.0986667
                   91      2       0.0997778
                   92      2       0.1008889
                   93      2       0.1020000
     Exposed Backing

   2 WALL (DEFAULT)
     Material List
          1  GYPSUM PLASTER                                              
     Layer  1
        Thickness   (m):  0.01200
        Density (kg/m3):  1440.00
        GYPSUM PLASTER, Mass fraction:    1.00
     Total surface density    17.280 kg/m2
     Reaction products considered from the first  0.50 layers.
     Solid Phase Node, Layer, Coordinates(m):
                    0      1       0.0000000
                    1      1       0.0005455
                    2      1       0.0016364
                    3      1       0.0038182
                    4      1       0.0081818
                    5      1       0.0103636
                    6      1       0.0114545
                    7      1       0.0120000
     Exposed Backing

   3 ignitor
     Wall or Vent Temperature (C)  1000.0
     Convection length scale (m)  2.00E-02

   4 OPEN
     Passive Vent to Atmosphere

   5 MIRROR
     Symmetry Plane

   6 INTERPOLATED

   7 PERIODIC

   8 HVAC

   9 MASSLESS TRACER

  10 DROPLET

  11 VEGETATION

  12 EVACUATION_OUTFLOW
     Normal Velocity (m/s)         0.000

  13 MASSLESS TARGET


 Device Coordinates

     1 Coords:     2.55     4.40     0.75, Make: null, ID: temp, Quantity: WALL TEMPERATURE
     2 Coords:     2.55     4.40     0.75, Make: null, ID: burn, Quantity: BURNING RATE
     3 Coords:     2.55     4.40     0.75, Make: null, ID: rad, Quantity: RADIATIVE HEAT FLUX
     4 Coords:     2.55     4.40     0.75, Make: null, ID: gauge, Quantity: GAUGE HEAT FLUX
     5 Coords:     2.55     4.40     0.75, Make: null, ID: con, Quantity: CONVECTIVE HEAT FLUX
     6 Coords:     2.55     4.35     0.75, Make: null, ID: gas, Quantity: TEMPERATURE
     7 Coords:     2.55     4.35     0.75, Make: null, ID: hrrpuv, Quantity: HRRPUV
     8 Coords:     2.55     4.35     0.75, Make: null, ID: qr, Quantity: RADIATION LOSS
     9 Coords:     2.55     4.35     0.75, Make: null, ID: U, Quantity: INTEGRATED INTENSITY


 Slice File Information, Mesh     1

   Sampling Interval (s)             0.600

   1 Nodes:  14  14   0  10   0  24, Quantity: TEMPERATURE
   2 Nodes:  14  14   0  10   0  24, Quantity: U-VELOCITY
   3 Nodes:  14  14   0  10   0  24, Quantity: V-VELOCITY
   4 Nodes:  14  14   0  10   0  24, Quantity: W-VELOCITY
   5 Nodes:  15  15   0  10   0  24, Quantity: HRRPUV
   6 Nodes:  15  15   0  10   0  24, Quantity: RADIATION LOSS
   7 Nodes:  15  15   0  10   0  24, Quantity: VISCOSITY
   8 Nodes:   0  24   8   8   0  24, Quantity: TEMPERATURE
   9 Nodes:   0  24   8   8   0  24, Quantity: U-VELOCITY
  10 Nodes:   0  24   8   8   0  24, Quantity: V-VELOCITY
  11 Nodes:   0  24   8   8   0  24, Quantity: W-VELOCITY
  12 Nodes:   0  24   9   9   0  24, Quantity: HRRPUV
  13 Nodes:   0  24   9   9   0  24, Quantity: RADIATION LOSS


 Boundary File Information

   Sampling Interval (s)             1.200

   1 Quantity: RADIATIVE HEAT FLUX
   2 Quantity: CONVECTIVE HEAT FLUX
   3 Quantity: NET HEAT FLUX
   4 Quantity: WALL TEMPERATURE
   5 Quantity: BURNING RATE


 Radiation Model Information

   Number of control angles  104
   Time step increment         3
   Angle increment             5
   Theta band N_phi   Solid angle
     1:        4  0.12
     2:       12  0.11
     3:       16  0.13
     4:       20  0.12
     5:       20  0.12
     6:       16  0.13
     7:       12  0.11
     8:        4  0.12
   Using gray gas absorption.
   Mean beam length  0.500 m
 
 

 Run Time Diagnostics

       Time Step       1   October  9, 2015  10:17:40
       Pressure Iterations:      1
       Maximum Velocity Error:  0.19E-02 on Mesh   1 at (   4   3   7)
       ---------------------------------------------------------------
       CPU/step:     0.378E+00 s, Total CPU:        0.38 s
       Time step:    0.102E+00 s, Total time:       0.10 s
       Max CFL number:  0.18E-01 at ( 14,  2, 11)
       Max divergence:  0.16E-01 at ( 15,  8,  7)
       Min divergence: -0.34E-05 at (  5,  8,  7)
       Max VN  number:  0.14E-01 at ( 12,  4,  9)
       No. of Lagrangian Particles:             3
 
       Time Step       2   October  9, 2015  10:17:40
       Pressure Iterations:      1
       Maximum Velocity Error:  0.13E-02 on Mesh   1 at (   3   3   2)
       ---------------------------------------------------------------
       CPU/step:     0.476E-01 s, Total CPU:        0.43 s
       Time step:    0.102E+00 s, Total time:       0.20 s
       Max CFL number:  0.18E-01 at ( 14,  2, 11)
       Max divergence:  0.40E-01 at ( 15,  8,  7)
       Min divergence: -0.99E-05 at (  5,  8,  7)
       Max VN  number:  0.14E-01 at ( 12,  4,  9)
       No. of Lagrangian Particles:             3
 
       Time Step       3   October  9, 2015  10:17:40
       Pressure Iterations:      1
       Maximum Velocity Error:  0.99E-03 on Mesh   1 at (   5   8   6)
       ---------------------------------------------------------------
       CPU/step:     0.326E-01 s, Total CPU:        0.46 s
       Time step:    0.102E+00 s, Total time:       0.31 s
       Max CFL number:  0.18E-01 at ( 14,  2, 11)
       Max divergence:  0.67E-01 at ( 15,  8,  7)
       Min divergence: -0.96E-05 at (  5,  8,  7)
       Max VN  number:  0.14E-01 at ( 12,  4,  9)
       No. of Lagrangian Particles:             3
 
       Time Step       4   October  9, 2015  10:17:40
       Pressure Iterations:      1
       Maximum Velocity Error:  0.40E-03 on Mesh   1 at (  14   9   7)
       ---------------------------------------------------------------
       CPU/step:     0.694E-01 s, Total CPU:        0.53 s
       Time step:    0.102E+00 s, Total time:       0.41 s
       Max CFL number:  0.22E-01 at ( 15,  8,  7)
       Max divergence:  0.94E-01 at ( 15,  8,  7)
       Min divergence: -0.28E-03 at (  5,  8,  7)
       Max VN  number:  0.14E-01 at ( 12,  4,  9)
       No. of Lagrangian Particles:             3
       Radiation Loss to Boundaries:         0.002 kW
 
       Time Step       5   October  9, 2015  10:17:40
       Pressure Iterations:      1
       Maximum Velocity Error:  0.71E-03 on Mesh   1 at (  16   9   7)
       ---------------------------------------------------------------
       CPU/step:     0.352E-01 s, Total CPU:        0.56 s
       Time step:    0.102E+00 s, Total time:       0.51 s
       Max CFL number:  0.30E-01 at ( 15,  8,  7)
       Max divergence:  0.12E+00 at ( 15,  8,  7)
       Min divergence: -0.28E-03 at (  5,  8,  7)
       Max VN  number:  0.14E-01 at ( 12,  4,  9)
       No. of Lagrangian Particles:             3
       Radiation Loss to Boundaries:         0.002 kW
 
       Time Step       6   October  9, 2015  10:17:40
       Pressure Iterations:      1
       Maximum Velocity Error:  0.10E-02 on Mesh   1 at (  15   9   7)
       ---------------------------------------------------------------
       CPU/step:     0.572E-01 s, Total CPU:        0.62 s
       Time step:    0.102E+00 s, Total time:       0.61 s
       Max CFL number:  0.40E-01 at ( 15,  8,  7)
       Max divergence:  0.15E+00 at ( 15,  8,  7)
       Min divergence: -0.29E-03 at (  5,  8,  7)
       Max VN  number:  0.14E-01 at ( 12,  4,  9)
       No. of Lagrangian Particles:             3
       Radiation Loss to Boundaries:         0.002 kW
 
       Time Step       7   October  9, 2015  10:17:40
       Pressure Iterations:      1
       Maximum Velocity Error:  0.12E-02 on Mesh   1 at (  15   9   7)
       ---------------------------------------------------------------
       CPU/step:     0.516E-01 s, Total CPU:        0.67 s
       Time step:    0.102E+00 s, Total time:       0.71 s
       Max CFL number:  0.52E-01 at ( 15,  8,  7)
       Max divergence:  0.17E+00 at ( 15,  8,  7)
       Min divergence: -0.28E-03 at (  5,  8,  7)
       Max VN  number:  0.14E-01 at ( 12,  4,  9)
       No. of Lagrangian Particles:             3
       Radiation Loss to Boundaries:         0.006 kW
 
       Time Step       8   October  9, 2015  10:17:40
       Pressure Iterations:      1
       Maximum Velocity Error:  0.15E-02 on Mesh   1 at (  15   9   7)
       ---------------------------------------------------------------
       CPU/step:     0.497E-01 s, Total CPU:        0.72 s
       Time step:    0.102E+00 s, Total time:       0.82 s
       Max CFL number:  0.68E-01 at ( 15,  8,  7)
       Max divergence:  0.19E+00 at ( 14,  8,  7)
       Min divergence: -0.14E-03 at (  5,  8,  7)
       Max VN  number:  0.14E-01 at ( 12,  4,  9)
       No. of Lagrangian Particles:             3
       Radiation Loss to Boundaries:         0.006 kW
 
       Time Step       9   October  9, 2015  10:17:40
       Pressure Iterations:      1
       Maximum Velocity Error:  0.17E-02 on Mesh   1 at (  15   9   7)
       ---------------------------------------------------------------
       CPU/step:     0.313E-01 s, Total CPU:        0.75 s
       Time step:    0.102E+00 s, Total time:       0.92 s
       Max CFL number:  0.87E-01 at ( 15,  8,  7)
       Max divergence:  0.21E+00 at ( 14,  8,  7)
       Min divergence: -0.14E-03 at (  5,  8,  7)
       Max VN  number:  0.14E-01 at ( 14,  7,  8)
       No. of Lagrangian Particles:             3
       Radiation Loss to Boundaries:         0.006 kW
 
       Time Step      10   October  9, 2015  10:17:40
       Pressure Iterations:      1
       Maximum Velocity Error:  0.18E-02 on Mesh   1 at (  15   9   7)
       ---------------------------------------------------------------
       CPU/step:     0.559E-01 s, Total CPU:        0.81 s
       Time step:    0.102E+00 s, Total time:       1.02 s
       Max CFL number:  0.11E+00 at ( 15,  8,  7)
       Max divergence:  0.22E+00 at ( 14,  8,  7)
       Min divergence: -0.76E-04 at ( 21, 10, 10)
       Max VN  number:  0.18E-01 at ( 14,  7,  8)
       No. of Lagrangian Particles:             3
       Radiation Loss to Boundaries:         0.014 kW
 
       Time Step      20   October  9, 2015  10:17:41
       Pressure Iterations:      1
       Maximum Velocity Error:  0.13E-01 on Mesh   1 at (  15   9  10)
       ---------------------------------------------------------------
       CPU/step:     0.514E-01 s, Total CPU:        1.32 s
       Time step:    0.102E+00 s, Total time:       2.04 s
       Max CFL number:  0.68E+00 at ( 15,  8,  8)
       Max divergence:  0.32E+00 at ( 14,  8,  7)
       Min divergence: -0.52E-01 at ( 15,  8,  9)
       Max VN  number:  0.20E+00 at ( 15,  8,  7)
       No. of Lagrangian Particles:             3
       Radiation Loss to Boundaries:         0.060 kW
 
       Time Step      30   October  9, 2015  10:17:42
       Pressure Iterations:      1
       Maximum Velocity Error:  0.29E-01 on Mesh   1 at (  15   9  12)
       ---------------------------------------------------------------
       CPU/step:     0.565E-01 s, Total CPU:        1.89 s
       Time step:    0.784E-01 s, Total time:       2.95 s
       Max CFL number:  0.94E+00 at ( 15,  8, 13)
       Max divergence:  0.34E+00 at ( 16,  8,  7)
       Min divergence: -0.96E-01 at ( 15,  8, 14)
       Max VN  number:  0.47E+00 at ( 15,  8, 13)
       No. of Lagrangian Particles:             3
       Radiation Loss to Boundaries:         0.096 kW
 
       Time Step      40   October  9, 2015  10:17:42
       Pressure Iterations:      1
       Maximum Velocity Error:  0.16E-01 on Mesh   1 at (  15   9  12)
       ---------------------------------------------------------------
       CPU/step:     0.513E-01 s, Total CPU:        2.40 s
       Time step:    0.784E-01 s, Total time:       3.73 s
       Max CFL number:  0.91E+00 at ( 15,  8, 13)
       Max divergence:  0.37E+00 at ( 14,  8,  7)
       Min divergence: -0.85E-01 at ( 15,  8, 13)
       Max VN  number:  0.39E+00 at ( 15,  8, 18)
       No. of Lagrangian Particles:             3
       Radiation Loss to Boundaries:         0.113 kW
 
       Time Step      50   October  9, 2015  10:17:42
       Pressure Iterations:      1
       Maximum Velocity Error:  0.84E-02 on Mesh   1 at (  15   9  12)
       ---------------------------------------------------------------
       CPU/step:     0.405E-01 s, Total CPU:        2.81 s
       Time step:    0.784E-01 s, Total time:       4.51 s
       Max CFL number:  0.98E+00 at ( 15,  8, 18)
       Max divergence:  0.39E+00 at ( 14,  8,  7)
       Min divergence: -0.90E-01 at ( 15,  8, 13)
       Max VN  number:  0.40E+00 at ( 15,  8, 22)
       No. of Lagrangian Particles:             3
       Radiation Loss to Boundaries:         0.113 kW
 
       Time Step      60   October  9, 2015  10:17:43
       Pressure Iterations:      1
       Maximum Velocity Error:  0.96E-02 on Mesh   1 at (  15   9  11)
       ---------------------------------------------------------------
       CPU/step:     0.515E-01 s, Total CPU:        3.32 s
       Time step:    0.620E-01 s, Total time:       5.23 s
       Max CFL number:  0.70E+00 at ( 15,  8, 19)
       Max divergence:  0.39E+00 at ( 16,  8,  7)
       Min divergence: -0.13E+00 at ( 15,  8,  8)
       Max VN  number:  0.45E+00 at ( 16,  8, 24)
       No. of Lagrangian Particles:             3
       Total Heat Release Rate:              0.018 kW
       Radiation Loss to Boundaries:         0.100 kW
 
       Time Step      70   October  9, 2015  10:17:43
       Pressure Iterations:      1
       Maximum Velocity Error:  0.60E-02 on Mesh   1 at (  14   9  10)
       ---------------------------------------------------------------
       CPU/step:     0.413E-01 s, Total CPU:        3.73 s
       Time step:    0.750E-01 s, Total time:       5.92 s
       Max CFL number:  0.88E+00 at ( 14,  8, 21)
       Max divergence:  0.48E+00 at ( 14,  8,  7)
       Min divergence: -0.11E+00 at ( 15,  8, 13)
       Max VN  number:  0.40E+00 at ( 15,  8, 13)
       No. of Lagrangian Particles:             3
       Total Heat Release Rate:              0.136 kW
       Radiation Loss to Boundaries:         0.053 kW
 
       Time Step      80   October  9, 2015  10:17:44
       Pressure Iterations:      1
       Maximum Velocity Error:  0.31E-01 on Mesh   1 at (  15   9  12)
       ---------------------------------------------------------------
       CPU/step:     0.508E-01 s, Total CPU:        4.24 s
       Time step:    0.750E-01 s, Total time:       6.67 s
       Max CFL number:  0.86E+00 at ( 15,  8, 11)
       Max divergence:  0.76E+00 at ( 15,  8,  7)
       Min divergence: -0.14E+00 at ( 15,  8,  8)
       Max VN  number:  0.36E+00 at ( 14,  9, 24)
       No. of Lagrangian Particles:             3
       Total Heat Release Rate:              0.559 kW
       Radiation Loss to Boundaries:        -0.093 kW
 
       Time Step      90   October  9, 2015  10:17:44
       Pressure Iterations:      1
       Maximum Velocity Error:  0.40E-01 on Mesh   1 at (  16   9  12)
       ---------------------------------------------------------------
       CPU/step:     0.527E-01 s, Total CPU:        4.77 s
       Time step:    0.658E-01 s, Total time:       7.38 s
       Max CFL number:  0.98E+00 at ( 16,  8, 13)
       Max divergence:  0.11E+01 at ( 15,  8,  7)
       Min divergence: -0.25E+00 at ( 15,  8,  9)
       Max VN  number:  0.42E+00 at ( 16,  8, 13)
       No. of Lagrangian Particles:             3
       Total Heat Release Rate:              1.172 kW
       Radiation Loss to Boundaries:        -0.305 kW
 
       Time Step     100   October  9, 2015  10:17:45
       Pressure Iterations:      1
       Maximum Velocity Error:  0.38E-01 on Mesh   1 at (  14   9  12)
       ---------------------------------------------------------------
       CPU/step:     0.446E-01 s, Total CPU:        5.21 s
       Time step:    0.572E-01 s, Total time:       7.97 s
       Max CFL number:  0.82E+00 at ( 16,  8, 18)
       Max divergence:  0.14E+01 at ( 15,  8,  7)
       Min divergence: -0.30E+00 at ( 15,  8,  9)
       Max VN  number:  0.37E+00 at ( 15,  8, 13)
       No. of Lagrangian Particles:             3
       Total Heat Release Rate:              1.668 kW
       Radiation Loss to Boundaries:        -0.473 kW
 
       Time Step     200   October  9, 2015  10:17:50
       Pressure Iterations:      1
       Maximum Velocity Error:  0.22E-01 on Mesh   1 at (  16   9  12)
       ---------------------------------------------------------------
       CPU/step:     0.472E-01 s, Total CPU:        9.93 s
       Time step:    0.445E-01 s, Total time:      12.59 s
       Max CFL number:  0.84E+00 at ( 16,  8, 21)
       Max divergence:  0.23E+01 at ( 15,  8,  7)
       Min divergence: -0.48E+00 at ( 15,  8, 13)
       Max VN  number:  0.37E+00 at ( 14,  8, 24)
       No. of Lagrangian Particles:             3
       Total Heat Release Rate:              3.269 kW
       Radiation Loss to Boundaries:        -1.018 kW
 
       Time Step     300   October  9, 2015  10:17:55
       Pressure Iterations:      1
       Maximum Velocity Error:  0.95E-03 on Mesh   1 at (  14   9  12)
       ---------------------------------------------------------------
       CPU/step:     0.465E-01 s, Total CPU:       14.59 s
       Time step:    0.407E-01 s, Total time:      16.72 s
       Max CFL number:  0.84E+00 at ( 15,  8, 13)
       Max divergence:  0.22E+01 at ( 15,  8,  7)
       Min divergence: -0.77E+00 at ( 15,  8, 13)
       Max VN  number:  0.38E+00 at ( 16,  8, 24)
       No. of Lagrangian Particles:             3
       Total Heat Release Rate:              3.673 kW
       Radiation Loss to Boundaries:        -1.153 kW
 
       Time Step     400   October  9, 2015  10:17:59
       Pressure Iterations:      1
       Maximum Velocity Error:  0.13E-02 on Mesh   1 at (  14   9  12)
       ---------------------------------------------------------------
       CPU/step:     0.454E-01 s, Total CPU:       19.13 s
       Time step:    0.410E-01 s, Total time:      20.61 s
       Max CFL number:  0.85E+00 at ( 15,  8, 21)
       Max divergence:  0.23E+01 at ( 15,  8,  7)
       Min divergence: -0.67E+00 at ( 15,  8, 13)
       Max VN  number:  0.45E+00 at ( 14,  8, 24)
       No. of Lagrangian Particles:             3
       Total Heat Release Rate:              3.933 kW
       Radiation Loss to Boundaries:        -1.240 kW
 
       Time Step     500   October  9, 2015  10:18:04
       Pressure Iterations:      1
       Maximum Velocity Error:  0.17E-02 on Mesh   1 at (  16   9  11)
       ---------------------------------------------------------------
       CPU/step:     0.461E-01 s, Total CPU:       23.74 s
       Time step:    0.367E-01 s, Total time:      24.30 s
       Max CFL number:  0.79E+00 at ( 15,  8, 13)
       Max divergence:  0.25E+01 at ( 15,  8,  7)
       Min divergence: -0.75E+00 at ( 15,  8, 13)
       Max VN  number:  0.43E+00 at ( 16,  8, 24)
       No. of Lagrangian Particles:             3
       Total Heat Release Rate:              4.162 kW
       Radiation Loss to Boundaries:        -1.315 kW
 
       Time Step     600   October  9, 2015  10:18:09
       Pressure Iterations:      1
       Maximum Velocity Error:  0.21E-02 on Mesh   1 at (  15   9  11)
       ---------------------------------------------------------------
       CPU/step:     0.483E-01 s, Total CPU:       28.56 s
       Time step:    0.367E-01 s, Total time:      27.96 s
       Max CFL number:  0.81E+00 at ( 15,  8, 19)
       Max divergence:  0.24E+01 at ( 15,  8,  7)
       Min divergence: -0.78E+00 at ( 15,  8, 13)
       Max VN  number:  0.47E+00 at ( 16,  8, 24)
       No. of Lagrangian Particles:             3
       Total Heat Release Rate:              4.211 kW
       Radiation Loss to Boundaries:        -1.327 kW
 
       Time Step     700   October  9, 2015  10:18:14
       Pressure Iterations:      1
       Maximum Velocity Error:  0.24E-02 on Mesh   1 at (  16   9  12)
       ---------------------------------------------------------------
       CPU/step:     0.474E-01 s, Total CPU:       33.31 s
       Time step:    0.367E-01 s, Total time:      31.63 s
       Max CFL number:  0.81E+00 at ( 15,  8, 19)
       Max divergence:  0.24E+01 at ( 15,  8,  7)
       Min divergence: -0.78E+00 at ( 15,  8, 13)
       Max VN  number:  0.46E+00 at ( 16,  8, 24)
       No. of Lagrangian Particles:             3
       Total Heat Release Rate:              4.370 kW
       Radiation Loss to Boundaries:        -1.379 kW
 
       Time Step     800   October  9, 2015  10:18:18
       Pressure Iterations:      1
       Maximum Velocity Error:  0.52E-02 on Mesh   1 at (  14   9  12)
       ---------------------------------------------------------------
       CPU/step:     0.471E-01 s, Total CPU:       38.02 s
       Time step:    0.367E-01 s, Total time:      35.30 s
       Max CFL number:  0.81E+00 at ( 15,  8, 13)
       Max divergence:  0.26E+01 at ( 15,  8,  7)
       Min divergence: -0.82E+00 at ( 15,  8, 13)
       Max VN  number:  0.43E+00 at ( 16,  8, 24)
       No. of Lagrangian Particles:             3
       Total Heat Release Rate:              4.287 kW
       Radiation Loss to Boundaries:        -1.349 kW
 
       Time Step     900   October  9, 2015  10:18:23
       Pressure Iterations:      1
       Maximum Velocity Error:  0.27E-02 on Mesh   1 at (  16   9  12)
       ---------------------------------------------------------------
       CPU/step:     0.466E-01 s, Total CPU:       42.67 s
       Time step:    0.359E-01 s, Total time:      38.97 s
       Max CFL number:  0.75E+00 at ( 15,  8, 21)
       Max divergence:  0.27E+01 at ( 15,  8,  7)
       Min divergence: -0.61E+00 at ( 15,  8, 13)
       Max VN  number:  0.42E+00 at ( 16,  8, 24)
       No. of Lagrangian Particles:             3
       Total Heat Release Rate:              4.671 kW
       Radiation Loss to Boundaries:        -1.479 kW
 
       Time Step    1000   October  9, 2015  10:18:28
       Pressure Iterations:      1
       Maximum Velocity Error:  0.16E-02 on Mesh   1 at (  15   9   8)
       ---------------------------------------------------------------
       CPU/step:     0.475E-01 s, Total CPU:       47.42 s
       Time step:    0.359E-01 s, Total time:      42.56 s
       Max CFL number:  0.80E+00 at ( 15,  8, 17)
       Max divergence:  0.33E+01 at ( 15,  8,  7)
       Min divergence: -0.78E+00 at ( 15,  8, 13)
       Max VN  number:  0.45E+00 at ( 16,  8, 24)
       No. of Lagrangian Particles:             3
       Total Heat Release Rate:              5.403 kW
       Radiation Loss to Boundaries:        -1.729 kW
 
       Time Step    1100   October  9, 2015  10:18:33
       Pressure Iterations:      1
       Maximum Velocity Error:  0.18E-01 on Mesh   1 at (  15   9  11)
       ---------------------------------------------------------------
       CPU/step:     0.486E-01 s, Total CPU:       52.28 s
       Time step:    0.288E-01 s, Total time:      46.01 s
       Max CFL number:  0.90E+00 at ( 15,  8, 13)
       Max divergence:  0.50E+01 at ( 15,  8,  7)
       Min divergence: -0.18E+01 at ( 15,  8, 13)
       Max VN  number:  0.38E+00 at ( 16,  8, 24)
       No. of Lagrangian Particles:             3
       Total Heat Release Rate:              9.015 kW
       Radiation Loss to Boundaries:        -2.962 kW
 
       Time Step    1200   October  9, 2015  10:18:39
       Pressure Iterations:      1
       Maximum Velocity Error:  0.73E-02 on Mesh   1 at (  14   9  12)
       ---------------------------------------------------------------
       CPU/step:     0.603E-01 s, Total CPU:       58.31 s
       Time step:    0.225E-01 s, Total time:      48.82 s
       Max CFL number:  0.76E+00 at ( 15,  8, 21)
       Max divergence:  0.65E+01 at ( 15,  8,  7)
       Min divergence: -0.17E+01 at ( 15,  8, 13)
       Max VN  number:  0.45E+00 at ( 16,  8, 24)
       No. of Lagrangian Particles:             3
       Total Heat Release Rate:             14.201 kW
       Radiation Loss to Boundaries:        -4.715 kW
 
       Time Step    1300   October  9, 2015  10:18:45
       Pressure Iterations:      1
       Maximum Velocity Error:  0.26E-01 on Mesh   1 at (  16   9  12)
       ---------------------------------------------------------------
       CPU/step:     0.522E-01 s, Total CPU:        1.06 min
       Time step:    0.213E-01 s, Total time:      51.06 s
       Max CFL number:  0.68E+00 at ( 15,  8, 13)
       Max divergence:  0.66E+01 at ( 15,  8,  7)
       Min divergence: -0.14E+01 at ( 15,  8, 13)
       Max VN  number:  0.40E+00 at ( 15,  8, 24)
       No. of Lagrangian Particles:             3
       Total Heat Release Rate:             14.235 kW
       Radiation Loss to Boundaries:        -4.741 kW
 
       Time Step    1400   October  9, 2015  10:18:50
       Pressure Iterations:      2
       Maximum Velocity Error:  0.95E-02 on Mesh   1 at (  15   9  12)
       ---------------------------------------------------------------
       CPU/step:     0.496E-01 s, Total CPU:        1.14 min
       Time step:    0.254E-01 s, Total time:      53.32 s
       Max CFL number:  0.89E+00 at ( 15,  8, 13)
       Max divergence:  0.67E+01 at ( 16,  8,  7)
       Min divergence: -0.11E+01 at ( 15,  8, 14)
       Max VN  number:  0.43E+00 at ( 14,  7, 24)
       No. of Lagrangian Particles:             3
       Total Heat Release Rate:             15.608 kW
       Radiation Loss to Boundaries:        -5.217 kW
 
       Time Step    1500   October  9, 2015  10:18:55
       Pressure Iterations:      2
       Maximum Velocity Error:  0.84E-02 on Mesh   1 at (  14   8   6)
       ---------------------------------------------------------------
       CPU/step:     0.509E-01 s, Total CPU:        1.23 min
       Time step:    0.215E-01 s, Total time:      55.49 s
       Max CFL number:  0.70E+00 at ( 15,  8, 18)
       Max divergence:  0.79E+01 at ( 14,  8,  7)
       Min divergence: -0.12E+01 at ( 15,  8, 13)
       Max VN  number:  0.46E+00 at ( 15,  8, 24)
       No. of Lagrangian Particles:             3
       Total Heat Release Rate:             19.994 kW
       Radiation Loss to Boundaries:        -6.704 kW
 
       Time Step    1600   October  9, 2015  10:19:00
       Pressure Iterations:      1
       Maximum Velocity Error:  0.84E-02 on Mesh   1 at (  14   9  12)
       ---------------------------------------------------------------
       CPU/step:     0.509E-01 s, Total CPU:        1.31 min
       Time step:    0.200E-01 s, Total time:      57.65 s
       Max CFL number:  0.87E+00 at ( 15,  8, 15)
       Max divergence:  0.60E+01 at ( 16,  8,  7)
       Min divergence: -0.28E+01 at ( 15,  8, 14)
       Max VN  number:  0.41E+00 at ( 15,  8, 13)
       No. of Lagrangian Particles:             3
       Total Heat Release Rate:             26.302 kW
       Radiation Loss to Boundaries:        -8.865 kW
 
       Time Step    1700   October  9, 2015  10:19:06
       Pressure Iterations:      1
       Maximum Velocity Error:  0.85E-02 on Mesh   1 at (  14   8   6)
       ---------------------------------------------------------------
       CPU/step:     0.563E-01 s, Total CPU:        1.40 min
       Time step:    0.206E-01 s, Total time:      59.62 s
       Max CFL number:  0.87E+00 at ( 16,  8, 15)
       Max divergence:  0.84E+01 at ( 14,  8,  7)
       Min divergence: -0.20E+01 at ( 16,  8, 15)
       Max VN  number:  0.48E+00 at ( 17,  8, 24)
       No. of Lagrangian Particles:             3
       Total Heat Release Rate:             33.353 kW
       Radiation Loss to Boundaries:       -11.240 kW
 
       Time Step    1800   October  9, 2015  10:19:11
       Pressure Iterations:      2
       Maximum Velocity Error:  0.90E-02 on Mesh   1 at (  16   8   6)
       ---------------------------------------------------------------
       CPU/step:     0.497E-01 s, Total CPU:        1.49 min
       Time step:    0.191E-01 s, Total time:      61.54 s
       Max CFL number:  0.99E+00 at ( 14,  8, 15)
       Max divergence:  0.78E+01 at ( 16,  8,  7)
       Min divergence: -0.17E+01 at ( 15,  8, 15)
       Max VN  number:  0.40E+00 at ( 14,  8, 15)
       No. of Lagrangian Particles:             3
       Total Heat Release Rate:             34.833 kW
       Radiation Loss to Boundaries:       -11.797 kW
 
       Time Step    1900   October  9, 2015  10:19:16
       Pressure Iterations:     10
       Maximum Velocity Error:  0.16E+00 on Mesh   1 at (  15   9   7)
       ---------------------------------------------------------------
       CPU/step:     0.513E-01 s, Total CPU:        1.57 min
       Time step:    0.223E-01 s, Total time:      63.59 s
       Max CFL number:  0.85E+00 at ( 14,  8, 11)
       Max divergence:  0.65E+01 at ( 16,  8,  7)
       Min divergence: -0.18E+01 at ( 15,  8, 14)
       Max VN  number:  0.40E+00 at ( 17,  8, 24)
       No. of Lagrangian Particles:             3
       Total Heat Release Rate:             29.100 kW
       Radiation Loss to Boundaries:        -9.784 kW
 
       Time Step    2000   October  9, 2015  10:19:22
       Pressure Iterations:      1
       Maximum Velocity Error:  0.41E-01 on Mesh   1 at (  16   9   7)
       ---------------------------------------------------------------
       CPU/step:     0.551E-01 s, Total CPU:        1.66 min
       Time step:    0.209E-01 s, Total time:      65.48 s
       Max CFL number:  0.87E+00 at ( 15,  8, 17)
       Max divergence:  0.86E+01 at ( 16,  8,  7)
       Min divergence: -0.19E+01 at ( 15,  8, 15)
       Max VN  number:  0.44E+00 at ( 14,  8, 24)
       No. of Lagrangian Particles:             3
       Total Heat Release Rate:             29.894 kW
       Radiation Loss to Boundaries:       -10.091 kW
 
       Time Step    2100   October  9, 2015  10:19:28
       Pressure Iterations:      1
       Maximum Velocity Error:  0.21E-01 on Mesh   1 at (  14   8   6)
       ---------------------------------------------------------------
       CPU/step:     0.557E-01 s, Total CPU:        1.76 min
       Time step:    0.210E-01 s, Total time:      67.41 s
       Max CFL number:  0.89E+00 at ( 15,  8, 15)
       Max divergence:  0.69E+01 at ( 15,  8,  7)
       Min divergence: -0.22E+01 at ( 15,  8, 15)
       Max VN  number:  0.39E+00 at ( 15,  8, 13)
       No. of Lagrangian Particles:             3
       Total Heat Release Rate:             26.876 kW
       Radiation Loss to Boundaries:        -9.042 kW
 
       Time Step    2200   October  9, 2015  10:19:33
       Pressure Iterations:      1
       Maximum Velocity Error:  0.82E-02 on Mesh   1 at (  15   9  10)
       ---------------------------------------------------------------
       CPU/step:     0.511E-01 s, Total CPU:        1.84 min
       Time step:    0.202E-01 s, Total time:      69.31 s
       Max CFL number:  0.82E+00 at ( 15,  8, 15)
       Max divergence:  0.70E+01 at ( 15,  8,  7)
       Min divergence: -0.18E+01 at ( 15,  8, 15)
       Max VN  number:  0.43E+00 at ( 16,  8, 24)
       No. of Lagrangian Particles:             3
       Total Heat Release Rate:             30.958 kW
       Radiation Loss to Boundaries:       -10.430 kW
 
       Time Step    2300   October  9, 2015  10:19:38
       Pressure Iterations:      1
       Maximum Velocity Error:  0.19E-01 on Mesh   1 at (  15   9   9)
       ---------------------------------------------------------------
       CPU/step:     0.514E-01 s, Total CPU:        1.93 min
       Time step:    0.170E-01 s, Total time:      71.26 s
       Max CFL number:  0.79E+00 at ( 15,  8, 15)
       Max divergence:  0.79E+01 at ( 14,  8,  7)
       Min divergence: -0.25E+01 at ( 15,  8, 16)
       Max VN  number:  0.46E+00 at ( 16,  8, 24)
       No. of Lagrangian Particles:             3
       Total Heat Release Rate:             31.419 kW
       Radiation Loss to Boundaries:       -10.590 kW
 
       Time Step    2400   October  9, 2015  10:19:43
       Pressure Iterations:      1
       Maximum Velocity Error:  0.19E-02 on Mesh   1 at (  16   9  12)
       ---------------------------------------------------------------
       CPU/step:     0.521E-01 s, Total CPU:        2.02 min
       Time step:    0.216E-01 s, Total time:      73.12 s
       Max CFL number:  0.80E+00 at ( 15,  8, 15)
       Max divergence:  0.63E+01 at ( 15,  8,  7)
       Min divergence: -0.15E+01 at ( 15,  8, 15)
       Max VN  number:  0.41E+00 at ( 15,  9, 24)
       No. of Lagrangian Particles:             3
       Total Heat Release Rate:             22.534 kW
       Radiation Loss to Boundaries:        -7.527 kW
 
       Time Step    2500   October  9, 2015  10:19:49
       Pressure Iterations:     10
       Maximum Velocity Error:  0.16E+00 on Mesh   1 at (  16   8   6)
       ---------------------------------------------------------------
       CPU/step:     0.527E-01 s, Total CPU:        2.10 min
       Time step:    0.202E-01 s, Total time:      75.17 s
       Max CFL number:  0.83E+00 at ( 15,  8, 21)
       Max divergence:  0.77E+01 at ( 14,  8,  7)
       Min divergence: -0.18E+01 at ( 15,  8, 15)
       Max VN  number:  0.48E+00 at ( 14,  8, 24)
       No. of Lagrangian Particles:             3
       Total Heat Release Rate:             32.651 kW
       Radiation Loss to Boundaries:       -11.003 kW
 
       Time Step    2600   October  9, 2015  10:19:54
       Pressure Iterations:      1
       Maximum Velocity Error:  0.49E-02 on Mesh   1 at (  16   9  12)
       ---------------------------------------------------------------
       CPU/step:     0.503E-01 s, Total CPU:        2.19 min
       Time step:    0.167E-01 s, Total time:      76.95 s
       Max CFL number:  0.70E+00 at ( 15,  8, 19)
       Max divergence:  0.62E+01 at ( 16,  8,  7)
       Min divergence: -0.16E+01 at ( 15,  8, 15)
       Max VN  number:  0.40E+00 at ( 14,  8, 24)
       No. of Lagrangian Particles:             3
       Total Heat Release Rate:             25.354 kW
       Radiation Loss to Boundaries:        -8.466 kW
 
       Time Step    2700   October  9, 2015  10:19:59
       Pressure Iterations:     10
       Maximum Velocity Error:  0.13E+00 on Mesh   1 at (  15   8   6)
       ---------------------------------------------------------------
       CPU/step:     0.507E-01 s, Total CPU:        2.27 min
       Time step:    0.213E-01 s, Total time:      79.01 s
       Max CFL number:  0.94E+00 at ( 15,  8, 13)
       Max divergence:  0.71E+01 at ( 14,  8,  7)
       Min divergence: -0.20E+01 at ( 15,  8, 15)
       Max VN  number:  0.44E+00 at ( 14,  8, 24)
       No. of Lagrangian Particles:             3
       Total Heat Release Rate:             34.697 kW
       Radiation Loss to Boundaries:       -11.740 kW
 
       Time Step    2800   October  9, 2015  10:20:04
       Pressure Iterations:      1
       Maximum Velocity Error:  0.55E-02 on Mesh   1 at (  15   8   6)
       ---------------------------------------------------------------
       CPU/step:     0.495E-01 s, Total CPU:        2.35 min
       Time step:    0.208E-01 s, Total time:      81.00 s
       Max CFL number:  0.80E+00 at ( 15,  8, 19)
       Max divergence:  0.69E+01 at ( 15,  8,  7)
       Min divergence: -0.17E+01 at ( 15,  8, 15)
       Max VN  number:  0.47E+00 at ( 14,  8, 24)
       No. of Lagrangian Particles:             3
       Total Heat Release Rate:             26.785 kW
       Radiation Loss to Boundaries:        -8.992 kW
 
       Time Step    2900   October  9, 2015  10:20:10
       Pressure Iterations:      1
       Maximum Velocity Error:  0.58E-02 on Mesh   1 at (  14   9  12)
       ---------------------------------------------------------------
       CPU/step:     0.524E-01 s, Total CPU:        2.44 min
       Time step:    0.184E-01 s, Total time:      82.89 s
       Max CFL number:  0.81E+00 at ( 15,  8, 21)
       Max divergence:  0.65E+01 at ( 15,  8,  7)
       Min divergence: -0.21E+01 at ( 15,  8, 15)
       Max VN  number:  0.38E+00 at ( 16,  8, 24)
       No. of Lagrangian Particles:             3
       Total Heat Release Rate:             27.311 kW
       Radiation Loss to Boundaries:        -9.162 kW
 
       Time Step    3000   October  9, 2015  10:20:15
       Pressure Iterations:      1
       Maximum Velocity Error:  0.24E-01 on Mesh   1 at (  16   8   6)
       ---------------------------------------------------------------
       CPU/step:     0.524E-01 s, Total CPU:        2.53 min
       Time step:    0.193E-01 s, Total time:      84.79 s
       Max CFL number:  0.91E+00 at ( 15,  8, 15)
       Max divergence:  0.93E+01 at ( 16,  8,  7)
       Min divergence: -0.25E+01 at ( 15,  8, 15)
       Max VN  number:  0.43E+00 at ( 14,  8, 24)
       No. of Lagrangian Particles:             3
       Total Heat Release Rate:             43.755 kW
       Radiation Loss to Boundaries:       -14.846 kW
 
       Time Step    3100   October  9, 2015  10:20:20
       Pressure Iterations:      1
       Maximum Velocity Error:  0.73E-02 on Mesh   1 at (  14   9  12)
       ---------------------------------------------------------------
       CPU/step:     0.508E-01 s, Total CPU:        2.61 min
       Time step:    0.169E-01 s, Total time:      86.56 s
       Max CFL number:  0.68E+00 at ( 15,  8, 15)
       Max divergence:  0.56E+01 at ( 14,  8,  7)
       Min divergence: -0.18E+01 at ( 15,  8, 15)
       Max VN  number:  0.39E+00 at ( 17,  8, 24)
       No. of Lagrangian Particles:             3
       Total Heat Release Rate:             26.758 kW
       Radiation Loss to Boundaries:        -8.979 kW
 
       Time Step    3200   October  9, 2015  10:20:25
       Pressure Iterations:     10
       Maximum Velocity Error:  0.93E-01 on Mesh   1 at (  15   9   8)
       ---------------------------------------------------------------
       CPU/step:     0.498E-01 s, Total CPU:        2.70 min
       Time step:    0.186E-01 s, Total time:      88.35 s
       Max CFL number:  0.78E+00 at ( 15,  8, 15)
       Max divergence:  0.67E+01 at ( 16,  8,  7)
       Min divergence: -0.19E+01 at ( 15,  8, 14)
       Max VN  number:  0.42E+00 at ( 15,  8, 24)
       No. of Lagrangian Particles:             3
       Total Heat Release Rate:             30.824 kW
       Radiation Loss to Boundaries:       -10.378 kW
 
       Time Step    3300   October  9, 2015  10:20:31
       Pressure Iterations:      1
       Maximum Velocity Error:  0.17E-01 on Mesh   1 at (  16   8   6)
       ---------------------------------------------------------------
       CPU/step:     0.506E-01 s, Total CPU:        2.78 min
       Time step:    0.186E-01 s, Total time:      90.22 s
       Max CFL number:  0.82E+00 at ( 15,  8, 19)
       Max divergence:  0.86E+01 at ( 16,  8,  7)
       Min divergence: -0.21E+01 at ( 15,  8, 15)
       Max VN  number:  0.41E+00 at ( 15,  8, 24)
       No. of Lagrangian Particles:             3
       Total Heat Release Rate:             32.060 kW
       Radiation Loss to Boundaries:       -10.798 kW
 
       Time Step    3400   October  9, 2015  10:20:36
       Pressure Iterations:      1
       Maximum Velocity Error:  0.16E-01 on Mesh   1 at (  16   8   6)
       ---------------------------------------------------------------
       CPU/step:     0.498E-01 s, Total CPU:        2.86 min
       Time step:    0.176E-01 s, Total time:      92.06 s
       Max CFL number:  0.92E+00 at ( 15,  8, 15)
       Max divergence:  0.67E+01 at ( 16,  8,  7)
       Min divergence: -0.30E+01 at ( 15,  8, 15)
       Max VN  number:  0.48E+00 at ( 14,  8, 24)
       No. of Lagrangian Particles:             3
       Total Heat Release Rate:             38.892 kW
       Radiation Loss to Boundaries:       -13.030 kW
 
       Time Step    3500   October  9, 2015  10:20:41
       Pressure Iterations:      1
       Maximum Velocity Error:  0.29E-02 on Mesh   1 at (  15   9  12)
       ---------------------------------------------------------------
       CPU/step:     0.521E-01 s, Total CPU:        2.95 min
       Time step:    0.188E-01 s, Total time:      93.94 s
       Max CFL number:  0.75E+00 at ( 15,  8, 17)
       Max divergence:  0.64E+01 at ( 16,  8,  7)
       Min divergence: -0.17E+01 at ( 15,  8, 15)
       Max VN  number:  0.47E+00 at ( 16,  8, 24)
       No. of Lagrangian Particles:             3
       Total Heat Release Rate:             27.104 kW
       Radiation Loss to Boundaries:        -9.084 kW
 
       Time Step    3600   October  9, 2015  10:20:46
       Pressure Iterations:      1
       Maximum Velocity Error:  0.28E-01 on Mesh   1 at (  14   9   7)
       ---------------------------------------------------------------
       CPU/step:     0.520E-01 s, Total CPU:        3.04 min
       Time step:    0.174E-01 s, Total time:      95.71 s
       Max CFL number:  0.78E+00 at ( 15,  8, 15)
       Max divergence:  0.91E+01 at ( 14,  8,  7)
       Min divergence: -0.22E+01 at ( 15,  8, 15)
       Max VN  number:  0.40E+00 at ( 16,  8, 24)
       No. of Lagrangian Particles:             3
       Total Heat Release Rate:             34.096 kW
       Radiation Loss to Boundaries:       -11.492 kW
 
       Time Step    3700   October  9, 2015  10:20:52
       Pressure Iterations:      1
       Maximum Velocity Error:  0.67E-02 on Mesh   1 at (  14   9  11)
       ---------------------------------------------------------------
       CPU/step:     0.528E-01 s, Total CPU:        3.13 min
       Time step:    0.191E-01 s, Total time:      97.51 s
       Max CFL number:  0.85E+00 at ( 15,  8, 17)
       Max divergence:  0.57E+01 at ( 15,  8,  7)
       Min divergence: -0.22E+01 at ( 15,  8, 15)
       Max VN  number:  0.42E+00 at ( 16,  8, 24)
       No. of Lagrangian Particles:             3
       Total Heat Release Rate:             26.423 kW
       Radiation Loss to Boundaries:        -8.845 kW
 
       Time Step    3800   October  9, 2015  10:20:57
       Pressure Iterations:     10
       Maximum Velocity Error:  0.12E+00 on Mesh   1 at (  15   9   7)
       ---------------------------------------------------------------
       CPU/step:     0.527E-01 s, Total CPU:        3.21 min
       Time step:    0.160E-01 s, Total time:      99.49 s
       Max CFL number:  0.79E+00 at ( 15,  8, 17)
       Max divergence:  0.74E+01 at ( 16,  8,  7)
       Min divergence: -0.28E+01 at ( 15,  8, 16)
       Max VN  number:  0.46E+00 at ( 16,  8, 24)
       No. of Lagrangian Particles:             3
       Total Heat Release Rate:             46.296 kW
       Radiation Loss to Boundaries:       -15.614 kW
 
       Time Step    3900   October  9, 2015  10:21:03
       Pressure Iterations:      1
       Maximum Velocity Error:  0.40E-02 on Mesh   1 at (  14   9  12)
       ---------------------------------------------------------------
       CPU/step:     0.563E-01 s, Total CPU:        3.31 min
       Time step:    0.165E-01 s, Total time:     101.25 s
       Max CFL number:  0.80E+00 at ( 15,  8, 17)
       Max divergence:  0.67E+01 at ( 16,  8,  7)
       Min divergence: -0.29E+01 at ( 15,  8, 15)
       Max VN  number:  0.41E+00 at ( 14,  8, 24)
       No. of Lagrangian Particles:             3
       Total Heat Release Rate:             38.532 kW
       Radiation Loss to Boundaries:       -12.924 kW
 
       Time Step    4000   October  9, 2015  10:21:08
       Pressure Iterations:      1
       Maximum Velocity Error:  0.26E-01 on Mesh   1 at (  15   9  10)
       ---------------------------------------------------------------
       CPU/step:     0.508E-01 s, Total CPU:        3.39 min
       Time step:    0.186E-01 s, Total time:     103.00 s
       Max CFL number:  0.83E+00 at ( 15,  8, 15)
       Max divergence:  0.54E+01 at ( 15,  8,  7)
       Min divergence: -0.27E+01 at ( 15,  8, 15)
       Max VN  number:  0.40E+00 at ( 16,  8, 24)
       No. of Lagrangian Particles:             3
       Total Heat Release Rate:             39.990 kW
       Radiation Loss to Boundaries:       -13.481 kW
 
       Time Step    4100   October  9, 2015  10:21:13
       Pressure Iterations:     10
       Maximum Velocity Error:  0.25E+00 on Mesh   1 at (  15   8   6)
       ---------------------------------------------------------------
       CPU/step:     0.521E-01 s, Total CPU:        3.48 min
       Time step:    0.172E-01 s, Total time:     104.82 s
       Max CFL number:  0.94E+00 at ( 15,  8, 15)
       Max divergence:  0.66E+01 at ( 16,  8,  7)
       Min divergence: -0.35E+01 at ( 15,  8, 14)
       Max VN  number:  0.44E+00 at ( 15,  8, 24)
       No. of Lagrangian Particles:             3
       Total Heat Release Rate:             49.021 kW
       Radiation Loss to Boundaries:       -16.561 kW
 
       Time Step    4200   October  9, 2015  10:21:19
       Pressure Iterations:      1
       Maximum Velocity Error:  0.15E-01 on Mesh   1 at (  14   9   7)
       ---------------------------------------------------------------
       CPU/step:     0.511E-01 s, Total CPU:        3.56 min
       Time step:    0.204E-01 s, Total time:     106.51 s
       Max CFL number:  0.84E+00 at ( 15,  8, 15)
       Max divergence:  0.80E+01 at ( 14,  8,  7)
       Min divergence: -0.21E+01 at ( 15,  8, 15)
       Max VN  number:  0.49E+00 at ( 17,  8, 24)
       No. of Lagrangian Particles:             3
       Total Heat Release Rate:             31.543 kW
       Radiation Loss to Boundaries:       -10.610 kW
 
       Time Step    4300   October  9, 2015  10:21:24
       Pressure Iterations:      1
       Maximum Velocity Error:  0.77E-02 on Mesh   1 at (  15   9  12)
       ---------------------------------------------------------------
       CPU/step:     0.500E-01 s, Total CPU:        3.65 min
       Time step:    0.191E-01 s, Total time:     108.33 s
       Max CFL number:  0.82E+00 at ( 15,  8, 15)
       Max divergence:  0.63E+01 at ( 16,  8,  7)
       Min divergence: -0.21E+01 at ( 15,  8, 15)
       Max VN  number:  0.44E+00 at ( 17,  8, 24)
       No. of Lagrangian Particles:             3
       Total Heat Release Rate:             32.612 kW
       Radiation Loss to Boundaries:       -10.966 kW
 
       Time Step    4400   October  9, 2015  10:21:29
       Pressure Iterations:      1
       Maximum Velocity Error:  0.50E-02 on Mesh   1 at (  16   9  11)
       ---------------------------------------------------------------
       CPU/step:     0.504E-01 s, Total CPU:        3.73 min
       Time step:    0.185E-01 s, Total time:     110.07 s
       Max CFL number:  0.86E+00 at ( 15,  8, 17)
       Max divergence:  0.60E+01 at ( 15,  8,  7)
       Min divergence: -0.27E+01 at ( 15,  8, 15)
       Max VN  number:  0.46E+00 at ( 16,  8, 24)
       No. of Lagrangian Particles:             3
       Total Heat Release Rate:             31.320 kW
       Radiation Loss to Boundaries:       -10.501 kW
 
       Time Step    4500   October  9, 2015  10:21:34
       Pressure Iterations:      1
       Maximum Velocity Error:  0.18E-01 on Mesh   1 at (  15   9  10)
       ---------------------------------------------------------------
       CPU/step:     0.509E-01 s, Total CPU:        3.82 min
       Time step:    0.189E-01 s, Total time:     111.93 s
       Max CFL number:  0.78E+00 at ( 15,  8, 15)
       Max divergence:  0.63E+01 at ( 16,  8,  7)
       Min divergence: -0.16E+01 at ( 15,  8, 15)
       Max VN  number:  0.42E+00 at ( 14,  8, 24)
       No. of Lagrangian Particles:             3
       Total Heat Release Rate:             37.596 kW
       Radiation Loss to Boundaries:       -12.692 kW
 
       Time Step    4600   October  9, 2015  10:21:39
       Pressure Iterations:      1
       Maximum Velocity Error:  0.96E-02 on Mesh   1 at (  15   9  12)
       ---------------------------------------------------------------
       CPU/step:     0.498E-01 s, Total CPU:        3.90 min
       Time step:    0.194E-01 s, Total time:     113.70 s
       Max CFL number:  0.85E+00 at ( 15,  7, 21)
       Max divergence:  0.67E+01 at ( 15,  8,  7)
       Min divergence: -0.21E+01 at ( 15,  8, 15)
       Max VN  number:  0.41E+00 at ( 15,  8, 24)
       No. of Lagrangian Particles:             3
       Total Heat Release Rate:             32.258 kW
       Radiation Loss to Boundaries:       -10.847 kW
 
       Time Step    4700   October  9, 2015  10:21:44
       Pressure Iterations:     10
       Maximum Velocity Error:  0.68E-01 on Mesh   1 at (  16   8   6)
       ---------------------------------------------------------------
       CPU/step:     0.500E-01 s, Total CPU:        3.98 min
       Time step:    0.184E-01 s, Total time:     115.55 s
       Max CFL number:  0.86E+00 at ( 15,  8, 15)
       Max divergence:  0.78E+01 at ( 16,  8,  7)
       Min divergence: -0.22E+01 at ( 15,  8, 15)
       Max VN  number:  0.48E+00 at ( 17,  8, 24)
       No. of Lagrangian Particles:             3
       Total Heat Release Rate:             48.751 kW
       Radiation Loss to Boundaries:       -16.531 kW
 
       Time Step    4800   October  9, 2015  10:21:50
       Pressure Iterations:      1
       Maximum Velocity Error:  0.26E-01 on Mesh   1 at (  14   8   6)
       ---------------------------------------------------------------
       CPU/step:     0.503E-01 s, Total CPU:        4.07 min
       Time step:    0.171E-01 s, Total time:     117.23 s
       Max CFL number:  0.80E+00 at ( 15,  8, 15)
       Max divergence:  0.69E+01 at ( 14,  8,  7)
       Min divergence: -0.24E+01 at ( 15,  8, 15)
       Max VN  number:  0.39E+00 at ( 16,  8, 24)
       No. of Lagrangian Particles:             3
       Total Heat Release Rate:             37.073 kW
       Radiation Loss to Boundaries:       -12.442 kW
 
       Time Step    4900   October  9, 2015  10:21:55
       Pressure Iterations:     10
       Maximum Velocity Error:  0.99E-01 on Mesh   1 at (  16   8   6)
       ---------------------------------------------------------------
       CPU/step:     0.511E-01 s, Total CPU:        4.15 min
       Time step:    0.168E-01 s, Total time:     119.01 s
       Max CFL number:  0.85E+00 at ( 15,  8, 15)
       Max divergence:  0.97E+01 at ( 16,  8,  7)
       Min divergence: -0.32E+01 at ( 15,  8, 15)
       Max VN  number:  0.42E+00 at ( 15,  7, 24)
       No. of Lagrangian Particles:             3
       Total Heat Release Rate:             40.602 kW
       Radiation Loss to Boundaries:       -13.680 kW
 
       Time Step    5000   October  9, 2015  10:22:00
       Pressure Iterations:      1
       Maximum Velocity Error:  0.94E-02 on Mesh   1 at (  15   9  12)
       ---------------------------------------------------------------
       CPU/step:     0.490E-01 s, Total CPU:        4.23 min
       Time step:    0.185E-01 s, Total time:     120.84 s
       Max CFL number:  0.83E+00 at ( 15,  8, 15)
       Max divergence:  0.74E+01 at ( 14,  8,  7)
       Min divergence: -0.28E+01 at ( 15,  8, 15)
       Max VN  number:  0.41E+00 at ( 14,  8, 24)
       No. of Lagrangian Particles:             3
       Total Heat Release Rate:             32.154 kW
       Radiation Loss to Boundaries:       -10.784 kW
 
       Time Step    5100   October  9, 2015  10:22:05
       Pressure Iterations:     10
       Maximum Velocity Error:  0.12E+00 on Mesh   1 at (  15   9   8)
       ---------------------------------------------------------------
       CPU/step:     0.515E-01 s, Total CPU:        4.32 min
       Time step:    0.181E-01 s, Total time:     122.66 s
       Max CFL number:  0.91E+00 at ( 15,  8, 15)
       Max divergence:  0.67E+01 at ( 16,  8,  7)
       Min divergence: -0.31E+01 at ( 15,  8, 16)
       Max VN  number:  0.45E+00 at ( 14,  8, 24)
       No. of Lagrangian Particles:             3
       Total Heat Release Rate:             53.988 kW
       Radiation Loss to Boundaries:       -18.327 kW
 
       Time Step    5200   October  9, 2015  10:22:10
       Pressure Iterations:      1
       Maximum Velocity Error:  0.49E-01 on Mesh   1 at (  16   9   7)
       ---------------------------------------------------------------
       CPU/step:     0.493E-01 s, Total CPU:        4.40 min
       Time step:    0.200E-01 s, Total time:     124.52 s
       Max CFL number:  0.79E+00 at ( 15,  8, 15)
       Max divergence:  0.84E+01 at ( 16,  8,  7)
       Min divergence: -0.18E+01 at ( 15,  8, 16)
       Max VN  number:  0.39E+00 at ( 17,  8, 24)
       No. of Lagrangian Particles:             3
       Total Heat Release Rate:             33.426 kW
       Radiation Loss to Boundaries:       -11.237 kW
 
       Time Step    5300   October  9, 2015  10:22:16
       Pressure Iterations:      1
       Maximum Velocity Error:  0.33E-01 on Mesh   1 at (  15   9   8)
       ---------------------------------------------------------------
       CPU/step:     0.524E-01 s, Total CPU:        4.49 min
       Time step:    0.189E-01 s, Total time:     126.39 s
       Max CFL number:  0.94E+00 at ( 15,  8, 15)
       Max divergence:  0.62E+01 at ( 14,  8,  7)
       Min divergence: -0.27E+01 at ( 15,  8, 16)
       Max VN  number:  0.46E+00 at ( 15,  8, 24)
       No. of Lagrangian Particles:             3
       Total Heat Release Rate:             50.956 kW
       Radiation Loss to Boundaries:       -17.302 kW
 
       Time Step    5400   October  9, 2015  10:22:23
       Pressure Iterations:      1
       Maximum Velocity Error:  0.79E-02 on Mesh   1 at (  14   9  12)
       ---------------------------------------------------------------
       CPU/step:     0.753E-01 s, Total CPU:        4.61 min
       Time step:    0.180E-01 s, Total time:     128.07 s
       Max CFL number:  0.77E+00 at ( 15,  8, 15)
       Max divergence:  0.62E+01 at ( 15,  8,  7)
       Min divergence: -0.24E+01 at ( 15,  8, 15)
       Max VN  number:  0.45E+00 at ( 15,  8, 24)
       No. of Lagrangian Particles:             3
       Total Heat Release Rate:             27.883 kW
       Radiation Loss to Boundaries:        -9.328 kW
 
       Time Step    5500   October  9, 2015  10:22:30
       Pressure Iterations:      1
       Maximum Velocity Error:  0.34E-01 on Mesh   1 at (  15   9  12)
       ---------------------------------------------------------------
       CPU/step:     0.660E-01 s, Total CPU:        4.72 min
       Time step:    0.177E-01 s, Total time:     129.92 s
       Max CFL number:  0.93E+00 at ( 15,  8, 19)
       Max divergence:  0.53E+01 at ( 14,  8,  7)
       Min divergence: -0.31E+01 at ( 15,  8, 16)
       Max VN  number:  0.44E+00 at ( 15,  8, 24)
       No. of Lagrangian Particles:             3
       Total Heat Release Rate:             61.406 kW
       Radiation Loss to Boundaries:       -20.779 kW
 
       Time Step    5600   October  9, 2015  10:22:35
       Pressure Iterations:      1
       Maximum Velocity Error:  0.43E-01 on Mesh   1 at (  14   9  12)
       ---------------------------------------------------------------
       CPU/step:     0.505E-01 s, Total CPU:        4.81 min
       Time step:    0.184E-01 s, Total time:     131.68 s
       Max CFL number:  0.85E+00 at ( 15,  8, 17)
       Max divergence:  0.60E+01 at ( 14,  8,  7)
       Min divergence: -0.18E+01 at ( 15,  8, 15)
       Max VN  number:  0.42E+00 at ( 14,  8, 24)
       No. of Lagrangian Particles:             3
       Total Heat Release Rate:             38.424 kW
       Radiation Loss to Boundaries:       -12.915 kW
 
       Time Step    5700   October  9, 2015  10:22:40
       Pressure Iterations:      1
       Maximum Velocity Error:  0.12E-01 on Mesh   1 at (  14   9  12)
       ---------------------------------------------------------------
       CPU/step:     0.520E-01 s, Total CPU:        4.89 min
       Time step:    0.151E-01 s, Total time:     133.33 s
       Max CFL number:  0.78E+00 at ( 16,  8, 18)
       Max divergence:  0.60E+01 at ( 15,  8,  7)
       Min divergence: -0.27E+01 at ( 16,  8, 15)
       Max VN  number:  0.41E+00 at ( 14,  8, 24)
       No. of Lagrangian Particles:             3
       Total Heat Release Rate:             39.463 kW
       Radiation Loss to Boundaries:       -13.196 kW
 
       Time Step    5800   October  9, 2015  10:22:46
       Pressure Iterations:      1
       Maximum Velocity Error:  0.10E-01 on Mesh   1 at (  14   9  12)
       ---------------------------------------------------------------
       CPU/step:     0.519E-01 s, Total CPU:        4.98 min
       Time step:    0.180E-01 s, Total time:     135.15 s
       Max CFL number:  0.80E+00 at ( 15,  8, 21)
       Max divergence:  0.72E+01 at ( 16,  8,  7)
       Min divergence: -0.14E+01 at ( 15,  8, 16)
       Max VN  number:  0.44E+00 at ( 15,  8, 24)
       No. of Lagrangian Particles:             3
       Total Heat Release Rate:             32.443 kW
       Radiation Loss to Boundaries:       -10.901 kW
 
       Time Step    5900   October  9, 2015  10:22:51
       Pressure Iterations:     10
       Maximum Velocity Error:  0.10E+00 on Mesh   1 at (  15   9   7)
       ---------------------------------------------------------------
       CPU/step:     0.525E-01 s, Total CPU:        5.07 min
       Time step:    0.154E-01 s, Total time:     136.82 s
       Max CFL number:  0.81E+00 at ( 15,  8, 17)
       Max divergence:  0.97E+01 at ( 14,  8,  7)
       Min divergence: -0.31E+01 at ( 15,  8, 15)
       Max VN  number:  0.44E+00 at ( 15,  8, 24)
       No. of Lagrangian Particles:             3
       Total Heat Release Rate:             46.912 kW
       Radiation Loss to Boundaries:       -15.789 kW
 
       Time Step    6000   October  9, 2015  10:22:57
       Pressure Iterations:     10
       Maximum Velocity Error:  0.79E-01 on Mesh   1 at (  16   8   6)
       ---------------------------------------------------------------
       CPU/step:     0.542E-01 s, Total CPU:        5.16 min
       Time step:    0.173E-01 s, Total time:     138.54 s
       Max CFL number:  0.85E+00 at ( 15,  8, 15)
       Max divergence:  0.82E+01 at ( 16,  8,  7)
       Min divergence: -0.36E+01 at ( 15,  8, 15)
       Max VN  number:  0.40E+00 at ( 17,  8, 24)
       No. of Lagrangian Particles:             3
       Total Heat Release Rate:             49.004 kW
       Radiation Loss to Boundaries:       -16.523 kW
 
       Time Step    6100   October  9, 2015  10:23:03
       Pressure Iterations:      1
       Maximum Velocity Error:  0.16E-01 on Mesh   1 at (  15   9  12)
       ---------------------------------------------------------------
       CPU/step:     0.581E-01 s, Total CPU:        5.26 min
       Time step:    0.186E-01 s, Total time:     140.26 s
       Max CFL number:  0.88E+00 at ( 15,  8, 13)
       Max divergence:  0.61E+01 at ( 14,  8,  7)
       Min divergence: -0.32E+01 at ( 15,  8, 17)
       Max VN  number:  0.39E+00 at ( 15,  8, 24)
       No. of Lagrangian Particles:             3
       Total Heat Release Rate:             39.339 kW
       Radiation Loss to Boundaries:       -13.243 kW
 
       Time Step    6200   October  9, 2015  10:23:10
       Pressure Iterations:     10
       Maximum Velocity Error:  0.14E+00 on Mesh   1 at (  16   8   6)
       ---------------------------------------------------------------
       CPU/step:     0.724E-01 s, Total CPU:        5.38 min
       Time step:    0.147E-01 s, Total time:     142.09 s
       Max CFL number:  0.90E+00 at ( 15,  8, 17)
       Max divergence:  0.81E+01 at ( 16,  8,  7)
       Min divergence: -0.44E+01 at ( 15,  8, 17)
       Max VN  number:  0.43E+00 at ( 14,  8, 24)
       No. of Lagrangian Particles:             3
       Total Heat Release Rate:             59.967 kW
       Radiation Loss to Boundaries:       -20.201 kW
 
       Time Step    6300   October  9, 2015  10:23:16
       Pressure Iterations:      1
       Maximum Velocity Error:  0.63E-02 on Mesh   1 at (  14   9  11)
       ---------------------------------------------------------------
       CPU/step:     0.544E-01 s, Total CPU:        5.47 min
       Time step:    0.235E-01 s, Total time:     143.97 s
       Max CFL number:  0.81E+00 at ( 15,  8, 15)
       Max divergence:  0.61E+01 at ( 15,  8,  7)
       Min divergence: -0.15E+01 at ( 15,  8, 15)
       Max VN  number:  0.44E+00 at ( 14,  8, 24)
       No. of Lagrangian Particles:             3
       Total Heat Release Rate:             23.864 kW
       Radiation Loss to Boundaries:        -7.961 kW
 
       Time Step    6400   October  9, 2015  10:23:21
       Pressure Iterations:      1
       Maximum Velocity Error:  0.11E-01 on Mesh   1 at (  15   9  12)
       ---------------------------------------------------------------
       CPU/step:     0.558E-01 s, Total CPU:        5.56 min
       Time step:    0.162E-01 s, Total time:     145.91 s
       Max CFL number:  0.80E+00 at ( 16,  8, 15)
       Max divergence:  0.69E+01 at ( 15,  8,  7)
       Min divergence: -0.25E+01 at ( 16,  8, 16)
       Max VN  number:  0.44E+00 at ( 17,  8, 24)
       No. of Lagrangian Particles:             3
       Total Heat Release Rate:             40.089 kW
       Radiation Loss to Boundaries:       -13.492 kW
 
       Time Step    6500   October  9, 2015  10:23:27
       Pressure Iterations:      1
       Maximum Velocity Error:  0.49E-01 on Mesh   1 at (  15   9   8)
       ---------------------------------------------------------------
       CPU/step:     0.540E-01 s, Total CPU:        5.65 min
       Time step:    0.177E-01 s, Total time:     147.66 s
       Max CFL number:  0.85E+00 at ( 14,  8, 15)
       Max divergence:  0.60E+01 at ( 16,  8,  7)
       Min divergence: -0.28E+01 at ( 15,  8, 15)
       Max VN  number:  0.44E+00 at ( 16,  7, 24)
       No. of Lagrangian Particles:             3
       Total Heat Release Rate:             41.591 kW
       Radiation Loss to Boundaries:       -13.985 kW
 
       Time Step    6600   October  9, 2015  10:23:32
       Pressure Iterations:     10
       Maximum Velocity Error:  0.55E-01 on Mesh   1 at (  15   9   7)
       ---------------------------------------------------------------
       CPU/step:     0.520E-01 s, Total CPU:        5.74 min
       Time step:    0.140E-01 s, Total time:     149.38 s
       Max CFL number:  0.74E+00 at ( 15,  8, 17)
       Max divergence:  0.59E+01 at ( 16,  8,  7)
       Min divergence: -0.30E+01 at ( 15,  8, 15)
       Max VN  number:  0.46E+00 at ( 14,  8, 24)
       No. of Lagrangian Particles:             3
       Total Heat Release Rate:             44.994 kW
       Radiation Loss to Boundaries:       -15.118 kW
 
       Time Step    6700   October  9, 2015  10:23:38
       Pressure Iterations:      1
       Maximum Velocity Error:  0.12E-01 on Mesh   1 at (  15   9   9)
       ---------------------------------------------------------------
       CPU/step:     0.513E-01 s, Total CPU:        5.82 min
       Time step:    0.162E-01 s, Total time:     151.12 s
       Max CFL number:  0.76E+00 at ( 15,  8, 19)
       Max divergence:  0.66E+01 at ( 14,  8,  7)
       Min divergence: -0.26E+01 at ( 15,  8, 15)
       Max VN  number:  0.47E+00 at ( 14,  8, 24)
       No. of Lagrangian Particles:             3
       Total Heat Release Rate:             34.876 kW
       Radiation Loss to Boundaries:       -11.711 kW
 
       Time Step    6800   October  9, 2015  10:23:43
       Pressure Iterations:      1
       Maximum Velocity Error:  0.11E-01 on Mesh   1 at (  16   9   7)
       ---------------------------------------------------------------
       CPU/step:     0.513E-01 s, Total CPU:        5.91 min
       Time step:    0.151E-01 s, Total time:     152.88 s
       Max CFL number:  0.82E+00 at ( 15,  8, 17)
       Max divergence:  0.58E+01 at ( 14,  8,  7)
       Min divergence: -0.40E+01 at ( 15,  8, 15)
       Max VN  number:  0.42E+00 at ( 16,  8, 24)
       No. of Lagrangian Particles:             3
       Total Heat Release Rate:             44.544 kW
       Radiation Loss to Boundaries:       -14.928 kW
 
       Time Step    6900   October  9, 2015  10:23:48
       Pressure Iterations:     10
       Maximum Velocity Error:  0.94E-01 on Mesh   1 at (  15   8   6)
       ---------------------------------------------------------------
       CPU/step:     0.510E-01 s, Total CPU:        5.99 min
       Time step:    0.220E-01 s, Total time:     154.82 s
       Max CFL number:  0.87E+00 at ( 15,  8, 15)
       Max divergence:  0.73E+01 at ( 15,  8,  7)
       Min divergence: -0.19E+01 at ( 15,  8, 15)
       Max VN  number:  0.49E+00 at ( 16,  8, 24)
       No. of Lagrangian Particles:             3
       Total Heat Release Rate:             28.030 kW
       Radiation Loss to Boundaries:        -9.396 kW
 
       Time Step    7000   October  9, 2015  10:23:53
       Pressure Iterations:     10
       Maximum Velocity Error:  0.72E-01 on Mesh   1 at (  15   8   6)
       ---------------------------------------------------------------
       CPU/step:     0.539E-01 s, Total CPU:        6.08 min
       Time step:    0.191E-01 s, Total time:     156.61 s
       Max CFL number:  0.86E+00 at ( 15,  8, 17)
       Max divergence:  0.65E+01 at ( 14,  8,  7)
       Min divergence: -0.20E+01 at ( 15,  8, 16)
       Max VN  number:  0.41E+00 at ( 16,  7, 24)
       No. of Lagrangian Particles:             3
       Total Heat Release Rate:             41.295 kW
       Radiation Loss to Boundaries:       -13.904 kW
 
       Time Step    7100   October  9, 2015  10:24:03
       Pressure Iterations:      1
       Maximum Velocity Error:  0.40E-02 on Mesh   1 at (  16   9  10)
       ---------------------------------------------------------------
       CPU/step:     0.902E-01 s, Total CPU:        6.23 min
       Time step:    0.147E-01 s, Total time:     158.28 s
       Max CFL number:  0.70E+00 at ( 15,  8, 19)
       Max divergence:  0.62E+01 at ( 15,  8,  7)
       Min divergence: -0.24E+01 at ( 15,  8, 15)
       Max VN  number:  0.46E+00 at ( 14,  8, 24)
       No. of Lagrangian Particles:             3
       Total Heat Release Rate:             39.389 kW
       Radiation Loss to Boundaries:       -13.208 kW
 
