
 Fire Dynamics Simulator

 Compilation Date : Sat, 11 Apr 2015
 Current Date     : October  9, 2015  10:15:44
 Version          : FDS 6.2.0
 SVN Revision No. : 22343

 MPI Enabled; Number of MPI Processes:     1
 OpenMP Enabled; Number of OpenMP Threads:   4

 Job TITLE        : Single Couch Test Case
 Job ID string    : couch1


 Grid Dimensions, Mesh     1

   Cells in the X Direction            24
   Cells in the Y Direction            10
   Cells in the Z Direction            24


 Physical Dimensions, Mesh     1

   Length (m)                       2.400
   Width  (m)                       1.000
   Height (m)                       2.400
   Initial Time Step (s)            0.102


 Miscellaneous Parameters

   Simulation Start Time (s)          0.0
   Simulation End Time (s)          600.0
   LES Calculation
   Deardorff Model (C_DEARDORFF)     0.10
   Turbulent Prandtl Number          0.50
   Turbulent Schmidt Number          0.50
   Ambient Temperature (C)          20.00


 Mass Fraction Transformation Matrix to Convert Species Mixtures (Columns) to Primitive Species (Rows)

                         AIR       PROPANE   PRODUCTS
   PROPANE               0.000000  1.000000  0.000000
   NITROGEN              0.763018  0.000000  0.716994
   OXYGEN                0.231164  0.000000  0.000000
   CARBON DIOXIDE        0.000592  0.000000  0.178969
   CARBON MONOXIDE       0.000000  0.000000  0.000000
   WATER VAPOR           0.005226  0.000000  0.103434
   SOOT                  0.000000  0.000000  0.000603


 Primitive Species Information

   PROPANE                                                     
   Gas Species
   Molecular Weight (g/mol)            44.09562
   Ambient Density (kg/m^3)            1.833
   Enthalpy of Formation (J/kg)       -2.37E+06

   NITROGEN                                                    
   Gas Species
   Molecular Weight (g/mol)            28.01340
   Ambient Density (kg/m^3)            1.165
   Enthalpy of Formation (J/kg)        0.00E+00

   OXYGEN                                                      
   Gas Species
   Molecular Weight (g/mol)            31.99880
   Ambient Density (kg/m^3)            1.330
   Enthalpy of Formation (J/kg)        0.00E+00

   CARBON DIOXIDE                                              
   Gas Species
   Molecular Weight (g/mol)            44.00950
   Ambient Density (kg/m^3)            1.830
   Enthalpy of Formation (J/kg)       -8.94E+06

   CARBON MONOXIDE                                             
   Gas Species
   Molecular Weight (g/mol)            28.01010
   Ambient Density (kg/m^3)            1.164
   Enthalpy of Formation (J/kg)       -3.95E+06

   WATER VAPOR                                                 
   Gas Species
   Molecular Weight (g/mol)            18.01528
   Ambient Density (kg/m^3)            0.749
   Enthalpy of Formation (J/kg)       -1.34E+07

   SOOT                                                        
   Gas Species
   Molecular Weight (g/mol)            10.91042
   Ambient Density (kg/m^3)            0.454
   Enthalpy of Formation (J/kg)        0.00E+00


 Tracked (Lumped) Species Information

   AIR                                                         
   Molecular Weight (g/mol)            28.76431
   Ambient Density (kg/m^3)            1.196
   Initial Mass Fraction               1.000
   Enthalpy of Formation (J/kg)     -7.54E+04

   Sub Species                    Mass Fraction     Mole Fraction
   NITROGEN                       7.630183E-01      7.834714E-01
   OXYGEN                         2.311635E-01      2.077972E-01
   CARBON DIOXIDE                 5.918904E-04      3.868556E-04
   WATER VAPOR                    5.226257E-03      8.344566E-03
 
   Viscosity (kg/m/s)   Ambient (293 K):  1.79E-05
                                  500 K:  2.61E-05
                                 1000 K:  4.12E-05
                                 1500 K:  5.36E-05
   Therm. Cond. (W/m/K) Ambient (293 K):  2.54E-02
                                  500 K:  3.80E-02
                                 1000 K:  6.62E-02
                                 1500 K:  9.20E-02
   Spec. Heat (J/kg/K)  Ambient (293 K):  1.01E+03
                                  500 K:  1.04E+03
                                 1000 K:  1.15E+03
                                 1500 K:  1.22E+03
   Diff. Coeff. (m^2/s) Ambient (293 K):  1.99E-05
                                  500 K:  4.96E-05
                                 1000 K:  1.58E-04
                                 1500 K:  3.09E-04

   PROPANE                                                     
   Molecular Weight (g/mol)            44.09562
   Ambient Density (kg/m^3)            1.833
   Initial Mass Fraction               0.000
   Enthalpy of Formation (J/kg)     -2.37E+06

   Sub Species                    Mass Fraction     Mole Fraction
   PROPANE                        1.000000E+00      1.000000E+00
 
   Viscosity (kg/m/s)   Ambient (293 K):  8.08E-06
                                  500 K:  1.31E-05
                                 1000 K:  2.23E-05
                                 1500 K:  2.96E-05
   Therm. Cond. (W/m/K) Ambient (293 K):  1.70E-02
                                  500 K:  4.14E-02
                                 1000 K:  1.12E-01
                                 1500 K:  1.73E-01
   Spec. Heat (J/kg/K)  Ambient (293 K):  1.68E+03
                                  500 K:  2.53E+03
                                 1000 K:  4.00E+03
                                 1500 K:  4.69E+03
   Diff. Coeff. (m^2/s) Ambient (293 K):  1.11E-05
                                  500 K:  2.86E-05
                                 1000 K:  9.32E-05
                                 1500 K:  1.83E-04

   PRODUCTS                                                    
   Molecular Weight (g/mol)            28.20236
   Ambient Density (kg/m^3)            1.172
   Initial Mass Fraction               0.000
   Enthalpy of Formation (J/kg)     -2.99E+06

   Sub Species                    Mass Fraction     Mole Fraction
   NITROGEN                       7.169941E-01      7.218307E-01
   CARBON DIOXIDE                 1.789688E-01      1.146876E-01
   CARBON MONOXIDE                0.000000E+00      0.000000E+00
   WATER VAPOR                    1.034339E-01      1.619226E-01
   SOOT                           6.031858E-04      1.559176E-03
 
   Viscosity (kg/m/s)   Ambient (293 K):  1.60E-05
                                  500 K:  2.37E-05
                                 1000 K:  3.88E-05
                                 1500 K:  5.15E-05
   Therm. Cond. (W/m/K) Ambient (293 K):  2.34E-02
                                  500 K:  3.63E-02
                                 1000 K:  6.76E-02
                                 1500 K:  9.75E-02
   Spec. Heat (J/kg/K)  Ambient (293 K):  1.09E+03
                                  500 K:  1.14E+03
                                 1000 K:  1.29E+03
                                 1500 K:  1.40E+03
   Diff. Coeff. (m^2/s) Ambient (293 K):  1.91E-05
                                  500 K:  4.83E-05
                                 1000 K:  1.56E-04
                                 1500 K:  3.05E-04


 Gas Phase Reaction Information

   Fuel                                           Heat of Combustion (kJ/kg)
   PROPANE                                                        45998.6831

   Stoichiometry

   Primitive Species
   Species ID                                                 Stoich. Coeff.
   PROPANE                                                         -1.000000
   NITROGEN                                                         0.000000
   OXYGEN                                                          -4.962615
   CARBON DIOXIDE                                                   2.963626
   WATER VAPOR                                                      3.997979
   SOOT                                                             0.040416

   Tracked (Lumped) Species
   Species ID                                                 Stoich. Coeff.
   AIR                                                            -23.882015
   PROPANE                                                         -1.000000
   PRODUCTS                                                        25.921421

   Reaction Kinetics

   Arrhenius Parameters
   Pre-exponential:    Infinite
   Activation Energy:  N/A

   ODE Solver:  EXPLICIT EULER
   Extinction Model:  EXTINCTION 2
   Critical Flame Temperature (K):   1600.2


 Material Information

   1 FABRIC                                                      
     Properties completely fabricated
     Emissivity                      0.900
     Density (kg/m3)                 100.0
     Specific Heat (kJ/kg/K)          1.00
     Conductivity (W/m/K)           0.1000
     Reaction  1
        Gaseous Yields:
        AIR                                                         :     0.00
        PROPANE                                                     :     1.00
        PRODUCTS                                                    :     0.00
        A (1/s)    :  1.82E+15
        E (kJ/kmol):  1.99E+05
        H_R (kJ/kg):  3.00E+03
        N_S        :     1.00

   2 FOAM                                                        
     Properties completely fabricated
     Emissivity                      0.900
     Density (kg/m3)                  40.0
     Specific Heat (kJ/kg/K)          1.00
     Conductivity (W/m/K)           0.0500
     Reaction  1
        Gaseous Yields:
        AIR                                                         :     0.00
        PROPANE                                                     :     1.00
        PRODUCTS                                                    :     0.00
        A (1/s)    :  1.82E+15
        E (kJ/kmol):  1.99E+05
        H_R (kJ/kg):  1.50E+03
        N_S        :     1.00

   3 GYPSUM PLASTER                                              
     Quintiere, Fire Behavior
     Emissivity                      0.900
     Density (kg/m3)                1440.0
     Specific Heat (kJ/kg/K)          0.84
     Conductivity (W/m/K)           0.4800


 Surface Conditions

   0 INERT

   1 UPHOLSTERY
     Properties completely fabricated
     Material List
          1  FABRIC                                                      
          2  FOAM                                                        
     Layer  1
        Thickness   (m):  0.00200
        Density (kg/m3):   100.00
        FABRIC, Mass fraction:    1.00
     Layer  2
        Thickness   (m):  0.10000
        Density (kg/m3):    40.00
        FOAM, Mass fraction:    1.00
     Total surface density     4.200 kg/m2
     Reaction products considered from the first  1.00 layers.
     Solid Phase Node, Layer, Coordinates(m):
                    0      1       0.0000000
                    1      1       0.0006667
                    2      1       0.0013333
                    3      1       0.0020000
                    4      2       0.0031111
                    5      2       0.0042222
                    6      2       0.0053333
                    7      2       0.0064444
                    8      2       0.0075556
                    9      2       0.0086667
                   10      2       0.0097778
                   11      2       0.0108889
                   12      2       0.0120000
                   13      2       0.0131111
                   14      2       0.0142222
                   15      2       0.0153333
                   16      2       0.0164444
                   17      2       0.0175556
                   18      2       0.0186667
                   19      2       0.0197778
                   20      2       0.0208889
                   21      2       0.0220000
                   22      2       0.0231111
                   23      2       0.0242222
                   24      2       0.0253333
                   25      2       0.0264444
                   26      2       0.0275556
                   27      2       0.0286667
                   28      2       0.0297778
                   29      2       0.0308889
                   30      2       0.0320000
                   31      2       0.0331111
                   32      2       0.0342222
                   33      2       0.0353333
                   34      2       0.0364444
                   35      2       0.0375556
                   36      2       0.0386667
                   37      2       0.0397778
                   38      2       0.0408889
                   39      2       0.0420000
                   40      2       0.0431111
                   41      2       0.0442222
                   42      2       0.0453333
                   43      2       0.0464444
                   44      2       0.0475556
                   45      2       0.0486667
                   46      2       0.0497778
                   47      2       0.0508889
                   48      2       0.0520000
                   49      2       0.0531111
                   50      2       0.0542222
                   51      2       0.0553333
                   52      2       0.0564444
                   53      2       0.0575556
                   54      2       0.0586667
                   55      2       0.0597778
                   56      2       0.0608889
                   57      2       0.0620000
                   58      2       0.0631111
                   59      2       0.0642222
                   60      2       0.0653333
                   61      2       0.0664444
                   62      2       0.0675556
                   63      2       0.0686667
                   64      2       0.0697778
                   65      2       0.0708889
                   66      2       0.0720000
                   67      2       0.0731111
                   68      2       0.0742222
                   69      2       0.0753333
                   70      2       0.0764444
                   71      2       0.0775556
                   72      2       0.0786667
                   73      2       0.0797778
                   74      2       0.0808889
                   75      2       0.0820000
                   76      2       0.0831111
                   77      2       0.0842222
                   78      2       0.0853333
                   79      2       0.0864444
                   80      2       0.0875556
                   81      2       0.0886667
                   82      2       0.0897778
                   83      2       0.0908889
                   84      2       0.0920000
                   85      2       0.0931111
                   86      2       0.0942222
                   87      2       0.0953333
                   88      2       0.0964444
                   89      2       0.0975556
                   90      2       0.0986667
                   91      2       0.0997778
                   92      2       0.1008889
                   93      2       0.1020000
     Exposed Backing

   2 WALL (DEFAULT)
     Material List
          1  GYPSUM PLASTER                                              
     Layer  1
        Thickness   (m):  0.01200
        Density (kg/m3):  1440.00
        GYPSUM PLASTER, Mass fraction:    1.00
     Total surface density    17.280 kg/m2
     Reaction products considered from the first  0.50 layers.
     Solid Phase Node, Layer, Coordinates(m):
                    0      1       0.0000000
                    1      1       0.0005455
                    2      1       0.0016364
                    3      1       0.0038182
                    4      1       0.0081818
                    5      1       0.0103636
                    6      1       0.0114545
                    7      1       0.0120000
     Exposed Backing

   3 ignitor
     Wall or Vent Temperature (C)  1000.0
     Convection length scale (m)  2.00E-02

   4 OPEN
     Passive Vent to Atmosphere

   5 MIRROR
     Symmetry Plane

   6 INTERPOLATED

   7 PERIODIC

   8 HVAC

   9 MASSLESS TRACER

  10 DROPLET

  11 VEGETATION

  12 EVACUATION_OUTFLOW
     Normal Velocity (m/s)         0.000

  13 MASSLESS TARGET


 Device Coordinates

     1 Coords:     2.55     4.40     0.75, Make: null, ID: temp, Quantity: WALL TEMPERATURE
     2 Coords:     2.55     4.40     0.75, Make: null, ID: burn, Quantity: BURNING RATE
     3 Coords:     2.55     4.40     0.75, Make: null, ID: rad, Quantity: RADIATIVE HEAT FLUX
     4 Coords:     2.55     4.40     0.75, Make: null, ID: gauge, Quantity: GAUGE HEAT FLUX
     5 Coords:     2.55     4.40     0.75, Make: null, ID: con, Quantity: CONVECTIVE HEAT FLUX
     6 Coords:     2.55     4.35     0.75, Make: null, ID: gas, Quantity: TEMPERATURE
     7 Coords:     2.55     4.35     0.75, Make: null, ID: hrrpuv, Quantity: HRRPUV
     8 Coords:     2.55     4.35     0.75, Make: null, ID: qr, Quantity: RADIATION LOSS
     9 Coords:     2.55     4.35     0.75, Make: null, ID: U, Quantity: INTEGRATED INTENSITY


 Slice File Information, Mesh     1

   Sampling Interval (s)             0.600

   1 Nodes:  14  14   0  10   0  24, Quantity: TEMPERATURE
   2 Nodes:  14  14   0  10   0  24, Quantity: U-VELOCITY
   3 Nodes:  14  14   0  10   0  24, Quantity: V-VELOCITY
   4 Nodes:  14  14   0  10   0  24, Quantity: W-VELOCITY
   5 Nodes:  15  15   0  10   0  24, Quantity: HRRPUV
   6 Nodes:  15  15   0  10   0  24, Quantity: RADIATION LOSS
   7 Nodes:  15  15   0  10   0  24, Quantity: VISCOSITY
   8 Nodes:   0  24   8   8   0  24, Quantity: TEMPERATURE
   9 Nodes:   0  24   8   8   0  24, Quantity: U-VELOCITY
  10 Nodes:   0  24   8   8   0  24, Quantity: V-VELOCITY
  11 Nodes:   0  24   8   8   0  24, Quantity: W-VELOCITY
  12 Nodes:   0  24   9   9   0  24, Quantity: HRRPUV
  13 Nodes:   0  24   9   9   0  24, Quantity: RADIATION LOSS


 Boundary File Information

   Sampling Interval (s)             1.200

   1 Quantity: RADIATIVE HEAT FLUX
   2 Quantity: CONVECTIVE HEAT FLUX
   3 Quantity: NET HEAT FLUX
   4 Quantity: WALL TEMPERATURE
   5 Quantity: BURNING RATE


 Radiation Model Information

   Number of control angles  104
   Time step increment         3
   Angle increment             5
   Theta band N_phi   Solid angle
     1:        4  0.12
     2:       12  0.11
     3:       16  0.13
     4:       20  0.12
     5:       20  0.12
     6:       16  0.13
     7:       12  0.11
     8:        4  0.12
   Using gray gas absorption.
   Mean beam length  0.500 m
 
 

 Run Time Diagnostics

       Time Step       1   October  9, 2015  10:15:44
       Pressure Iterations:      1
       Maximum Velocity Error:  0.19E-02 on Mesh   1 at (   4   3   7)
       ---------------------------------------------------------------
       CPU/step:     0.432E+00 s, Total CPU:        0.43 s
       Time step:    0.102E+00 s, Total time:       0.10 s
       Max CFL number:  0.18E-01 at ( 14,  2, 11)
       Max divergence:  0.16E-01 at ( 15,  8,  7)
       Min divergence: -0.34E-05 at (  5,  8,  7)
       Max VN  number:  0.14E-01 at ( 12,  4,  9)
       No. of Lagrangian Particles:             3
 
       Time Step       2   October  9, 2015  10:15:44
       Pressure Iterations:      1
       Maximum Velocity Error:  0.13E-02 on Mesh   1 at (   3   3   2)
       ---------------------------------------------------------------
       CPU/step:     0.483E-01 s, Total CPU:        0.48 s
       Time step:    0.102E+00 s, Total time:       0.20 s
       Max CFL number:  0.18E-01 at ( 14,  2, 11)
       Max divergence:  0.40E-01 at ( 15,  8,  7)
       Min divergence: -0.99E-05 at (  5,  8,  7)
       Max VN  number:  0.14E-01 at ( 12,  4,  9)
       No. of Lagrangian Particles:             3
 
       Time Step       3   October  9, 2015  10:15:44
       Pressure Iterations:      1
       Maximum Velocity Error:  0.99E-03 on Mesh   1 at (   5   8   6)
       ---------------------------------------------------------------
       CPU/step:     0.332E-01 s, Total CPU:        0.51 s
       Time step:    0.102E+00 s, Total time:       0.31 s
       Max CFL number:  0.18E-01 at ( 14,  2, 11)
       Max divergence:  0.67E-01 at ( 15,  8,  7)
       Min divergence: -0.96E-05 at (  5,  8,  7)
       Max VN  number:  0.14E-01 at ( 12,  4,  9)
       No. of Lagrangian Particles:             3
 
       Time Step       4   October  9, 2015  10:15:45
       Pressure Iterations:      1
       Maximum Velocity Error:  0.40E-03 on Mesh   1 at (  14   9   7)
       ---------------------------------------------------------------
       CPU/step:     0.633E-01 s, Total CPU:        0.58 s
       Time step:    0.102E+00 s, Total time:       0.41 s
       Max CFL number:  0.22E-01 at ( 15,  8,  7)
       Max divergence:  0.94E-01 at ( 15,  8,  7)
       Min divergence: -0.28E-03 at (  5,  8,  7)
       Max VN  number:  0.14E-01 at ( 12,  4,  9)
       No. of Lagrangian Particles:             3
       Radiation Loss to Boundaries:         0.002 kW
 
       Time Step       5   October  9, 2015  10:15:45
       Pressure Iterations:      1
       Maximum Velocity Error:  0.71E-03 on Mesh   1 at (  16   9   7)
       ---------------------------------------------------------------
       CPU/step:     0.337E-01 s, Total CPU:        0.61 s
       Time step:    0.102E+00 s, Total time:       0.51 s
       Max CFL number:  0.30E-01 at ( 15,  8,  7)
       Max divergence:  0.12E+00 at ( 15,  8,  7)
       Min divergence: -0.28E-03 at (  5,  8,  7)
       Max VN  number:  0.14E-01 at ( 12,  4,  9)
       No. of Lagrangian Particles:             3
       Radiation Loss to Boundaries:         0.002 kW
 
       Time Step       6   October  9, 2015  10:15:45
       Pressure Iterations:      1
       Maximum Velocity Error:  0.10E-02 on Mesh   1 at (  15   9   7)
       ---------------------------------------------------------------
       CPU/step:     0.543E-01 s, Total CPU:        0.67 s
       Time step:    0.102E+00 s, Total time:       0.61 s
       Max CFL number:  0.40E-01 at ( 15,  8,  7)
       Max divergence:  0.15E+00 at ( 15,  8,  7)
       Min divergence: -0.29E-03 at (  5,  8,  7)
       Max VN  number:  0.14E-01 at ( 12,  4,  9)
       No. of Lagrangian Particles:             3
       Radiation Loss to Boundaries:         0.002 kW
 
       Time Step       7   October  9, 2015  10:15:45
       Pressure Iterations:      1
       Maximum Velocity Error:  0.12E-02 on Mesh   1 at (  15   9   7)
       ---------------------------------------------------------------
       CPU/step:     0.445E-01 s, Total CPU:        0.71 s
       Time step:    0.102E+00 s, Total time:       0.71 s
       Max CFL number:  0.52E-01 at ( 15,  8,  7)
       Max divergence:  0.17E+00 at ( 15,  8,  7)
       Min divergence: -0.28E-03 at (  5,  8,  7)
       Max VN  number:  0.14E-01 at ( 12,  4,  9)
       No. of Lagrangian Particles:             3
       Radiation Loss to Boundaries:         0.006 kW
 
       Time Step       8   October  9, 2015  10:15:45
       Pressure Iterations:      1
       Maximum Velocity Error:  0.15E-02 on Mesh   1 at (  15   9   7)
       ---------------------------------------------------------------
       CPU/step:     0.497E-01 s, Total CPU:        0.76 s
       Time step:    0.102E+00 s, Total time:       0.82 s
       Max CFL number:  0.68E-01 at ( 15,  8,  7)
       Max divergence:  0.19E+00 at ( 14,  8,  7)
       Min divergence: -0.14E-03 at (  5,  8,  7)
       Max VN  number:  0.14E-01 at ( 12,  4,  9)
       No. of Lagrangian Particles:             3
       Radiation Loss to Boundaries:         0.006 kW
 
       Time Step       9   October  9, 2015  10:15:45
       Pressure Iterations:      1
       Maximum Velocity Error:  0.17E-02 on Mesh   1 at (  15   9   7)
       ---------------------------------------------------------------
       CPU/step:     0.318E-01 s, Total CPU:        0.79 s
       Time step:    0.102E+00 s, Total time:       0.92 s
       Max CFL number:  0.87E-01 at ( 15,  8,  7)
       Max divergence:  0.21E+00 at ( 14,  8,  7)
       Min divergence: -0.14E-03 at (  5,  8,  7)
       Max VN  number:  0.14E-01 at ( 14,  7,  8)
       No. of Lagrangian Particles:             3
       Radiation Loss to Boundaries:         0.006 kW
 
       Time Step      10   October  9, 2015  10:15:45
       Pressure Iterations:      1
       Maximum Velocity Error:  0.18E-02 on Mesh   1 at (  15   9   7)
       ---------------------------------------------------------------
       CPU/step:     0.586E-01 s, Total CPU:        0.85 s
       Time step:    0.102E+00 s, Total time:       1.02 s
       Max CFL number:  0.11E+00 at ( 15,  8,  7)
       Max divergence:  0.22E+00 at ( 14,  8,  7)
       Min divergence: -0.76E-04 at ( 21, 10, 10)
       Max VN  number:  0.18E-01 at ( 14,  7,  8)
       No. of Lagrangian Particles:             3
       Radiation Loss to Boundaries:         0.014 kW
 
       Time Step      20   October  9, 2015  10:15:45
       Pressure Iterations:      1
       Maximum Velocity Error:  0.13E-01 on Mesh   1 at (  15   9  10)
       ---------------------------------------------------------------
       CPU/step:     0.531E-01 s, Total CPU:        1.38 s
       Time step:    0.102E+00 s, Total time:       2.04 s
       Max CFL number:  0.68E+00 at ( 15,  8,  8)
       Max divergence:  0.32E+00 at ( 14,  8,  7)
       Min divergence: -0.52E-01 at ( 15,  8,  9)
       Max VN  number:  0.20E+00 at ( 15,  8,  7)
       No. of Lagrangian Particles:             3
       Radiation Loss to Boundaries:         0.060 kW
 
